MODEL 1
REMARK VINA RESULT:    -7.854      0.000      0.000
REMARK INTER + INTRA:          -8.543
REMARK INTER:                  -8.543
REMARK INTRA:                   0.000
REMARK UNBOUND:                 0.000
REMARK  3 active torsions:
REMARK  status: ('A' for Active; 'I' for Inactive)
REMARK    1  A    between atoms: O_2  and  C_8 
REMARK    2  A    between atoms: O_3  and  C_11 
REMARK    3  A    between atoms: O_4  and  C_21 
ROOT
ATOM      1  O   UNK d   1     -20.638  13.704  -4.345  0.00  0.00    -0.313 OA
ATOM      2  O   UNK d   1     -20.199  11.464  -3.990  0.00  0.00    -0.260 OA
ATOM      3  C   UNK d   1     -20.031  15.384  -2.749  0.00  0.00     0.032 C 
ATOM      4  C   UNK d   1     -14.484  11.416  -4.323  0.00  0.00     0.067 C 
ATOM      5  C   UNK d   1     -14.781  12.697  -5.118  0.00  0.00     0.124 C 
ATOM      6  C   UNK d   1     -19.907  15.884  -1.303  0.00  0.00     0.006 C 
ATOM      7  C   UNK d   1     -20.661  13.997  -2.926  0.00  0.00     0.128 C 
ATOM      8  C   UNK d   1     -14.337  11.664  -2.812  0.00  0.00     0.143 C 
ATOM      9  C   UNK d   1     -19.132  14.967  -0.348  0.00  0.00     0.027 C 
ATOM     10  C   UNK d   1     -15.228  12.450  -6.565  0.00  0.00     0.059 C 
ATOM     11  C   UNK d   1     -22.109  13.937  -2.456  0.00  0.00     0.040 C 
ATOM     12  C   UNK d   1     -15.665  11.968  -2.175  0.00  0.00     0.004 C 
ATOM     13  C   UNK d   1     -17.736  14.677  -0.819  0.00  0.00    -0.027 C 
ATOM     14  C   UNK d   1     -14.311  11.570  -7.372  0.00  0.00    -0.024 C 
ATOM     15  C   UNK d   1     -16.004  13.172  -1.691  0.00  0.00    -0.002 C 
ATOM     16  C   UNK d   1     -17.320  13.450  -1.163  0.00  0.00    -0.004 C 
ATOM     17  C   UNK d   1     -14.555  10.332  -7.832  0.00  0.00    -0.004 C 
ATOM     18  C   UNK d   1     -17.201   7.494  -8.027  0.00  0.00     0.144 C 
ATOM     19  C   UNK d   1     -20.405  12.417  -4.724  0.00  0.00     0.283 C 
ATOM     20  C   UNK d   1     -18.328   7.923  -7.066  0.00  0.00     0.062 C 
ATOM     21  C   UNK d   1     -15.743   9.545  -7.580  0.00  0.00    -0.002 C 
ATOM     22  C   UNK d   1     -16.008   8.394  -8.216  0.00  0.00     0.005 C 
ATOM     23  C   UNK d   1     -20.473  12.375  -6.205  0.00  0.00     0.082 C 
ATOM     24  C   UNK d   1     -19.062   9.178  -7.464  0.00  0.00    -0.024 C 
ATOM     25  C   UNK d   1     -20.036  11.379  -6.989  0.00  0.00     0.006 C 
ATOM     26  C   UNK d   1     -19.347  10.168  -6.602  0.00  0.00    -0.004 C 
ENDROOT
BRANCH   5  27
ATOM     27  O   UNK d   1     -13.620  13.528  -5.151  0.00  0.00    -0.395 OA
ATOM     28  H   UNK d   1     -13.888  14.414  -5.446  0.00  0.00     0.210 HD
ENDBRANCH   5  27
BRANCH   8  29
ATOM     29  O   UNK d   1     -13.840  10.474  -2.198  0.00  0.00    -0.392 OA
ATOM     30  H   UNK d   1     -12.994  10.256  -2.623  0.00  0.00     0.210 HD
ENDBRANCH   8  29
BRANCH  18  31
ATOM     31  O   UNK d   1     -17.785   7.219  -9.304  0.00  0.00    -0.391 OA
ATOM     32  H   UNK d   1     -18.017   8.065  -9.722  0.00  0.00     0.210 HD
ENDBRANCH  18  31
TORSDOF 3
ENDMDL
MODEL 2
REMARK VINA RESULT:    -7.697      2.204      3.409
REMARK INTER + INTRA:          -8.372
REMARK INTER:                  -8.372
REMARK INTRA:                   0.000
REMARK UNBOUND:                 0.000
REMARK  3 active torsions:
REMARK  status: ('A' for Active; 'I' for Inactive)
REMARK    1  A    between atoms: O_2  and  C_8 
REMARK    2  A    between atoms: O_3  and  C_11 
REMARK    3  A    between atoms: O_4  and  C_21 
ROOT
ATOM      1  O   UNK d   1     -21.924  12.271  -6.824  0.00  0.00    -0.313 OA
ATOM      2  O   UNK d   1     -20.908  10.269  -6.281  0.00  0.00    -0.260 OA
ATOM      3  C   UNK d   1     -23.103  13.577  -5.199  0.00  0.00     0.032 C 
ATOM      4  C   UNK d   1     -16.660  12.091  -2.905  0.00  0.00     0.067 C 
ATOM      5  C   UNK d   1     -16.930  13.377  -3.702  0.00  0.00     0.124 C 
ATOM      6  C   UNK d   1     -24.057  13.694  -4.002  0.00  0.00     0.006 C 
ATOM      7  C   UNK d   1     -22.881  12.160  -5.742  0.00  0.00     0.128 C 
ATOM      8  C   UNK d   1     -17.532  11.968  -1.644  0.00  0.00     0.143 C 
ATOM      9  C   UNK d   1     -23.690  12.848  -2.776  0.00  0.00     0.027 C 
ATOM     10  C   UNK d   1     -16.306  13.391  -5.104  0.00  0.00     0.059 C 
ATOM     11  C   UNK d   1     -24.152  11.531  -6.300  0.00  0.00     0.040 C 
ATOM     12  C   UNK d   1     -18.962  11.666  -1.995  0.00  0.00     0.004 C 
ATOM     13  C   UNK d   1     -22.313  13.141  -2.253  0.00  0.00    -0.027 C 
ATOM     14  C   UNK d   1     -14.833  13.085  -5.148  0.00  0.00    -0.024 C 
ATOM     15  C   UNK d   1     -19.973  12.533  -1.832  0.00  0.00    -0.002 C 
ATOM     16  C   UNK d   1     -21.321  12.240  -2.259  0.00  0.00    -0.004 C 
ATOM     17  C   UNK d   1     -14.236  11.997  -5.663  0.00  0.00    -0.004 C 
ATOM     18  C   UNK d   1     -14.837   8.632  -7.508  0.00  0.00     0.144 C 
ATOM     19  C   UNK d   1     -21.016  11.267  -6.974  0.00  0.00     0.283 C 
ATOM     20  C   UNK d   1     -16.364   8.421  -7.481  0.00  0.00     0.062 C 
ATOM     21  C   UNK d   1     -14.901  10.843  -6.227  0.00  0.00    -0.002 C 
ATOM     22  C   UNK d   1     -14.251   9.875  -6.891  0.00  0.00     0.005 C 
ATOM     23  C   UNK d   1     -20.189  11.595  -8.160  0.00  0.00     0.082 C 
ATOM     24  C   UNK d   1     -17.162   9.443  -8.249  0.00  0.00    -0.024 C 
ATOM     25  C   UNK d   1     -19.021  11.026  -8.492  0.00  0.00     0.006 C 
ATOM     26  C   UNK d   1     -18.266  10.033  -7.760  0.00  0.00    -0.004 C 
ENDROOT
BRANCH   5  27
ATOM     27  O   UNK d   1     -16.428  14.506  -2.985  0.00  0.00    -0.395 OA
ATOM     28  H   UNK d   1     -15.987  15.097  -3.619  0.00  0.00     0.210 HD
ENDBRANCH   5  27
BRANCH   8  29
ATOM     29  O   UNK d   1     -17.053  10.875  -0.859  0.00  0.00    -0.392 OA
ATOM     30  H   UNK d   1     -17.352  11.018   0.055  0.00  0.00     0.210 HD
ENDBRANCH   8  29
BRANCH  18  31
ATOM     31  O   UNK d   1     -14.398   8.533  -8.866  0.00  0.00    -0.391 OA
ATOM     32  H   UNK d   1     -13.782   7.784  -8.934  0.00  0.00     0.210 HD
ENDBRANCH  18  31
TORSDOF 3
ENDMDL
MODEL 3
REMARK VINA RESULT:    -7.632      2.681      6.539
REMARK INTER + INTRA:          -8.301
REMARK INTER:                  -8.301
REMARK INTRA:                   0.000
REMARK UNBOUND:                 0.000
REMARK  3 active torsions:
REMARK  status: ('A' for Active; 'I' for Inactive)
REMARK    1  A    between atoms: O_2  and  C_8 
REMARK    2  A    between atoms: O_3  and  C_11 
REMARK    3  A    between atoms: O_4  and  C_21 
ROOT
ATOM      1  O   UNK d   1     -15.553   9.632  -6.612  0.00  0.00    -0.313 OA
ATOM      2  O   UNK d   1     -16.332  11.547  -7.643  0.00  0.00    -0.260 OA
ATOM      3  C   UNK d   1     -14.669   9.660  -4.387  0.00  0.00     0.032 C 
ATOM      4  C   UNK d   1     -21.002  12.637  -4.517  0.00  0.00     0.067 C 
ATOM      5  C   UNK d   1     -20.850  11.132  -4.242  0.00  0.00     0.124 C 
ATOM      6  C   UNK d   1     -13.822  10.310  -3.283  0.00  0.00     0.006 C 
ATOM      7  C   UNK d   1     -14.666  10.377  -5.743  0.00  0.00     0.128 C 
ATOM      8  C   UNK d   1     -20.209  13.513  -3.532  0.00  0.00     0.143 C 
ATOM      9  C   UNK d   1     -14.157  11.772  -2.964  0.00  0.00     0.027 C 
ATOM     10  C   UNK d   1     -21.373  10.232  -5.369  0.00  0.00     0.059 C 
ATOM     11  C   UNK d   1     -13.288  10.411  -6.393  0.00  0.00     0.040 C 
ATOM     12  C   UNK d   1     -18.731  13.430  -3.794  0.00  0.00     0.004 C 
ATOM     13  C   UNK d   1     -15.593  11.972  -2.571  0.00  0.00    -0.027 C 
ATOM     14  C   UNK d   1     -22.787  10.513  -5.803  0.00  0.00    -0.024 C 
ATOM     15  C   UNK d   1     -17.856  12.833  -2.971  0.00  0.00    -0.002 C 
ATOM     16  C   UNK d   1     -16.456  12.698  -3.297  0.00  0.00    -0.004 C 
ATOM     17  C   UNK d   1     -23.200  11.021  -6.976  0.00  0.00    -0.004 C 
ATOM     18  C   UNK d   1     -22.038  12.296 -10.457  0.00  0.00     0.144 C 
ATOM     19  C   UNK d   1     -16.309  10.336  -7.500  0.00  0.00     0.283 C 
ATOM     20  C   UNK d   1     -20.503  12.389 -10.363  0.00  0.00     0.062 C 
ATOM     21  C   UNK d   1     -22.353  11.479  -8.056  0.00  0.00    -0.002 C 
ATOM     22  C   UNK d   1     -22.823  11.802  -9.269  0.00  0.00     0.005 C 
ATOM     23  C   UNK d   1     -17.090   9.353  -8.289  0.00  0.00     0.082 C 
ATOM     24  C   UNK d   1     -19.795  11.073 -10.167  0.00  0.00    -0.024 C 
ATOM     25  C   UNK d   1     -18.149   9.624  -9.067  0.00  0.00     0.006 C 
ATOM     26  C   UNK d   1     -18.815  10.892  -9.267  0.00  0.00    -0.004 C 
ENDROOT
BRANCH   5  27
ATOM     27  O   UNK d   1     -21.542  10.785  -3.043  0.00  0.00    -0.395 OA
ATOM     28  H   UNK d   1     -21.159  11.299  -2.311  0.00  0.00     0.210 HD
ENDBRANCH   5  27
BRANCH   8  29
ATOM     29  O   UNK d   1     -20.592  14.876  -3.719  0.00  0.00    -0.392 OA
ATOM     30  H   UNK d   1     -21.330  14.889  -4.351  0.00  0.00     0.210 HD
ENDBRANCH   8  29
BRANCH  18  31
ATOM     31  O   UNK d   1     -22.368  11.499 -11.599  0.00  0.00    -0.391 OA
ATOM     32  H   UNK d   1     -22.855  10.715 -11.293  0.00  0.00     0.210 HD
ENDBRANCH  18  31
TORSDOF 3
ENDMDL
MODEL 4
REMARK VINA RESULT:    -7.623      3.062      4.213
REMARK INTER + INTRA:          -8.292
REMARK INTER:                  -8.292
REMARK INTRA:                   0.000
REMARK UNBOUND:                 0.000
REMARK  3 active torsions:
REMARK  status: ('A' for Active; 'I' for Inactive)
REMARK    1  A    between atoms: O_2  and  C_8 
REMARK    2  A    between atoms: O_3  and  C_11 
REMARK    3  A    between atoms: O_4  and  C_21 
ROOT
ATOM      1  O   UNK d   1     -17.071  17.271  -6.749  0.00  0.00    -0.313 OA
ATOM      2  O   UNK d   1     -18.481  15.442  -6.695  0.00  0.00    -0.260 OA
ATOM      3  C   UNK d   1     -17.102  18.947  -5.039  0.00  0.00     0.032 C 
ATOM      4  C   UNK d   1     -16.383  12.592  -2.195  0.00  0.00     0.067 C 
ATOM      5  C   UNK d   1     -15.148  13.424  -2.576  0.00  0.00     0.124 C 
ATOM      6  C   UNK d   1     -17.857  19.861  -4.063  0.00  0.00     0.006 C 
ATOM      7  C   UNK d   1     -17.974  18.079  -5.954  0.00  0.00     0.128 C 
ATOM      8  C   UNK d   1     -17.324  13.322  -1.221  0.00  0.00     0.143 C 
ATOM      9  C   UNK d   1     -18.845  19.156  -3.124  0.00  0.00     0.027 C 
ATOM     10  C   UNK d   1     -14.352  12.860  -3.762  0.00  0.00     0.059 C 
ATOM     11  C   UNK d   1     -18.836  18.899  -6.906  0.00  0.00     0.040 C 
ATOM     12  C   UNK d   1     -18.062  14.438  -1.906  0.00  0.00     0.004 C 
ATOM     13  C   UNK d   1     -18.201  18.085  -2.292  0.00  0.00    -0.027 C 
ATOM     14  C   UNK d   1     -13.952  11.415  -3.630  0.00  0.00    -0.024 C 
ATOM     15  C   UNK d   1     -17.844  15.739  -1.664  0.00  0.00    -0.002 C 
ATOM     16  C   UNK d   1     -18.512  16.786  -2.402  0.00  0.00    -0.004 C 
ATOM     17  C   UNK d   1     -14.400  10.371  -4.346  0.00  0.00    -0.004 C 
ATOM     18  C   UNK d   1     -16.755   9.297  -7.243  0.00  0.00     0.144 C 
ATOM     19  C   UNK d   1     -17.451  15.996  -7.042  0.00  0.00     0.283 C 
ATOM     20  C   UNK d   1     -17.599  10.547  -7.564  0.00  0.00     0.062 C 
ATOM     21  C   UNK d   1     -15.432  10.408  -5.360  0.00  0.00    -0.002 C 
ATOM     22  C   UNK d   1     -15.704   9.371  -6.166  0.00  0.00     0.005 C 
ATOM     23  C   UNK d   1     -16.388  15.404  -7.889  0.00  0.00     0.082 C 
ATOM     24  C   UNK d   1     -16.820  11.720  -8.101  0.00  0.00    -0.024 C 
ATOM     25  C   UNK d   1     -16.230  14.101  -8.164  0.00  0.00     0.006 C 
ATOM     26  C   UNK d   1     -16.990  12.978  -7.661  0.00  0.00    -0.004 C 
ENDROOT
BRANCH   5  27
ATOM     27  O   UNK d   1     -14.264  13.521  -1.459  0.00  0.00    -0.395 OA
ATOM     28  H   UNK d   1     -14.720  14.009  -0.752  0.00  0.00     0.210 HD
ENDBRANCH   5  27
BRANCH   8  29
ATOM     29  O   UNK d   1     -18.305  12.397  -0.751  0.00  0.00    -0.392 OA
ATOM     30  H   UNK d   1     -18.310  11.640  -1.361  0.00  0.00     0.210 HD
ENDBRANCH   8  29
BRANCH  18  31
ATOM     31  O   UNK d   1     -16.148   8.844  -8.457  0.00  0.00    -0.391 OA
ATOM     32  H   UNK d   1     -16.429   9.434  -9.177  0.00  0.00     0.210 HD
ENDBRANCH  18  31
TORSDOF 3
ENDMDL
MODEL 5
REMARK VINA RESULT:    -7.386      3.852      5.673
REMARK INTER + INTRA:          -8.034
REMARK INTER:                  -8.034
REMARK INTRA:                   0.000
REMARK UNBOUND:                 0.000
REMARK  3 active torsions:
REMARK  status: ('A' for Active; 'I' for Inactive)
REMARK    1  A    between atoms: O_2  and  C_8 
REMARK    2  A    between atoms: O_3  and  C_11 
REMARK    3  A    between atoms: O_4  and  C_21 
ROOT
ATOM      1  O   UNK d   1     -16.934  17.891  -7.453  0.00  0.00    -0.313 OA
ATOM      2  O   UNK d   1     -18.304  16.042  -7.244  0.00  0.00    -0.260 OA
ATOM      3  C   UNK d   1     -17.407  19.953  -6.330  0.00  0.00     0.032 C 
ATOM      4  C   UNK d   1     -17.408  14.647  -1.764  0.00  0.00     0.067 C 
ATOM      5  C   UNK d   1     -16.120  15.437  -2.046  0.00  0.00     0.124 C 
ATOM      6  C   UNK d   1     -18.390  21.033  -5.857  0.00  0.00     0.006 C 
ATOM      7  C   UNK d   1     -18.013  18.811  -7.155  0.00  0.00     0.128 C 
ATOM      8  C   UNK d   1     -18.569  15.537  -1.288  0.00  0.00     0.143 C 
ATOM      9  C   UNK d   1     -19.581  20.531  -5.032  0.00  0.00     0.027 C 
ATOM     10  C   UNK d   1     -15.047  14.641  -2.801  0.00  0.00     0.059 C 
ATOM     11  C   UNK d   1     -18.608  19.284  -8.476  0.00  0.00     0.040 C 
ATOM     12  C   UNK d   1     -19.113  16.374  -2.412  0.00  0.00     0.004 C 
ATOM     13  C   UNK d   1     -19.165  19.769  -3.806  0.00  0.00    -0.027 C 
ATOM     14  C   UNK d   1     -14.687  13.316  -2.183  0.00  0.00    -0.024 C 
ATOM     15  C   UNK d   1     -18.970  17.706  -2.491  0.00  0.00    -0.002 C 
ATOM     16  C   UNK d   1     -19.432  18.467  -3.628  0.00  0.00    -0.004 C 
ATOM     17  C   UNK d   1     -14.934  12.089  -2.672  0.00  0.00    -0.004 C 
ATOM     18  C   UNK d   1     -16.469  10.116  -5.646  0.00  0.00     0.144 C 
ATOM     19  C   UNK d   1     -17.222  16.559  -7.468  0.00  0.00     0.283 C 
ATOM     20  C   UNK d   1     -17.208  11.170  -6.493  0.00  0.00     0.062 C 
ATOM     21  C   UNK d   1     -15.673  11.780  -3.877  0.00  0.00    -0.002 C 
ATOM     22  C   UNK d   1     -15.727  10.550  -4.408  0.00  0.00     0.005 C 
ATOM     23  C   UNK d   1     -15.975  15.844  -7.834  0.00  0.00     0.082 C 
ATOM     24  C   UNK d   1     -16.323  12.214  -7.125  0.00  0.00    -0.024 C 
ATOM     25  C   UNK d   1     -15.747  14.530  -7.693  0.00  0.00     0.006 C 
ATOM     26  C   UNK d   1     -16.605  13.528  -7.102  0.00  0.00    -0.004 C 
ENDROOT
BRANCH   5  27
ATOM     27  O   UNK d   1     -15.551  15.891  -0.818  0.00  0.00    -0.395 OA
ATOM     28  H   UNK d   1     -16.089  15.543  -0.087  0.00  0.00     0.210 HD
ENDBRANCH   5  27
BRANCH   8  29
ATOM     29  O   UNK d   1     -19.634  14.699  -0.836  0.00  0.00    -0.392 OA
ATOM     30  H   UNK d   1     -20.290  15.268  -0.400  0.00  0.00     0.210 HD
ENDBRANCH   8  29
BRANCH  18  31
ATOM     31  O   UNK d   1     -15.571   9.404  -6.503  0.00  0.00    -0.391 OA
ATOM     32  H   UNK d   1     -16.029   8.614  -6.836  0.00  0.00     0.210 HD
ENDBRANCH  18  31
TORSDOF 3
ENDMDL
MODEL 6
REMARK VINA RESULT:    -7.346      2.045      6.945
REMARK INTER + INTRA:          -7.990
REMARK INTER:                  -7.990
REMARK INTRA:                   0.000
REMARK UNBOUND:                 0.000
REMARK  3 active torsions:
REMARK  status: ('A' for Active; 'I' for Inactive)
REMARK    1  A    between atoms: O_2  and  C_8 
REMARK    2  A    between atoms: O_3  and  C_11 
REMARK    3  A    between atoms: O_4  and  C_21 
ROOT
ATOM      1  O   UNK d   1     -20.670  10.148  -6.072  0.00  0.00    -0.313 OA
ATOM      2  O   UNK d   1     -19.766  12.162  -6.754  0.00  0.00    -0.260 OA
ATOM      3  C   UNK d   1     -20.127   8.083  -7.156  0.00  0.00     0.032 C 
ATOM      4  C   UNK d   1     -14.283  11.444  -5.273  0.00  0.00     0.067 C 
ATOM      5  C   UNK d   1     -14.945  10.432  -4.324  0.00  0.00     0.124 C 
ATOM      6  C   UNK d   1     -19.855   7.257  -8.422  0.00  0.00     0.006 C 
ATOM      7  C   UNK d   1     -20.506   9.551  -7.382  0.00  0.00     0.128 C 
ATOM      8  C   UNK d   1     -13.931  10.844  -6.644  0.00  0.00     0.143 C 
ATOM      9  C   UNK d   1     -18.772   7.812  -9.356  0.00  0.00     0.027 C 
ATOM     10  C   UNK d   1     -15.576  11.061  -3.074  0.00  0.00     0.059 C 
ATOM     11  C   UNK d   1     -21.817   9.715  -8.142  0.00  0.00     0.040 C 
ATOM     12  C   UNK d   1     -15.165  10.603  -7.469  0.00  0.00     0.004 C 
ATOM     13  C   UNK d   1     -17.446   7.992  -8.674  0.00  0.00    -0.027 C 
ATOM     14  C   UNK d   1     -14.660  11.955  -2.281  0.00  0.00    -0.024 C 
ATOM     15  C   UNK d   1     -15.637   9.384  -7.772  0.00  0.00    -0.002 C 
ATOM     16  C   UNK d   1     -16.872   9.191  -8.494  0.00  0.00    -0.004 C 
ATOM     17  C   UNK d   1     -14.743  13.287  -2.129  0.00  0.00    -0.004 C 
ATOM     18  C   UNK d   1     -16.806  16.453  -3.030  0.00  0.00     0.144 C 
ATOM     19  C   UNK d   1     -20.268  11.439  -5.909  0.00  0.00     0.283 C 
ATOM     20  C   UNK d   1     -17.814  15.989  -4.101  0.00  0.00     0.062 C 
ATOM     21  C   UNK d   1     -15.703  14.162  -2.766  0.00  0.00    -0.002 C 
ATOM     22  C   UNK d   1     -15.851  15.453  -2.431  0.00  0.00     0.005 C 
ATOM     23  C   UNK d   1     -20.576  11.822  -4.510  0.00  0.00     0.082 C 
ATOM     24  C   UNK d   1     -18.826  14.978  -3.628  0.00  0.00    -0.024 C 
ATOM     25  C   UNK d   1     -20.099  12.894  -3.859  0.00  0.00     0.006 C 
ATOM     26  C   UNK d   1     -19.141  13.872  -4.323  0.00  0.00    -0.004 C 
ENDROOT
BRANCH   5  27
ATOM     27  O   UNK d   1     -13.982   9.469  -3.894  0.00  0.00    -0.395 OA
ATOM     28  H   UNK d   1     -13.544   9.811  -3.096  0.00  0.00     0.210 HD
ENDBRANCH   5  27
BRANCH   8  29
ATOM     29  O   UNK d   1     -13.124  11.780  -7.361  0.00  0.00    -0.392 OA
ATOM     30  H   UNK d   1     -13.462  12.669  -7.163  0.00  0.00     0.210 HD
ENDBRANCH   8  29
BRANCH  18  31
ATOM     31  O   UNK d   1     -17.536  17.091  -1.978  0.00  0.00    -0.391 OA
ATOM     32  H   UNK d   1     -18.432  17.285  -2.302  0.00  0.00     0.210 HD
ENDBRANCH  18  31
TORSDOF 3
ENDMDL
MODEL 7
REMARK VINA RESULT:    -7.322      3.582      7.544
REMARK INTER + INTRA:          -7.964
REMARK INTER:                  -7.964
REMARK INTRA:                   0.000
REMARK UNBOUND:                 0.000
REMARK  3 active torsions:
REMARK  status: ('A' for Active; 'I' for Inactive)
REMARK    1  A    between atoms: O_2  and  C_8 
REMARK    2  A    between atoms: O_3  and  C_11 
REMARK    3  A    between atoms: O_4  and  C_21 
ROOT
ATOM      1  O   UNK d   1     -16.515  11.812  -7.033  0.00  0.00    -0.313 OA
ATOM      2  O   UNK d   1     -15.531  13.890  -7.255  0.00  0.00    -0.260 OA
ATOM      3  C   UNK d   1     -15.795  10.239  -5.377  0.00  0.00     0.032 C 
ATOM      4  C   UNK d   1     -17.224  16.411  -2.402  0.00  0.00     0.067 C 
ATOM      5  C   UNK d   1     -18.312  15.333  -2.529  0.00  0.00     0.124 C 
ATOM      6  C   UNK d   1     -14.688   9.533  -4.582  0.00  0.00     0.006 C 
ATOM      7  C   UNK d   1     -15.324  11.233  -6.444  0.00  0.00     0.128 C 
ATOM      8  C   UNK d   1     -15.976  15.923  -1.646  0.00  0.00     0.143 C 
ATOM      9  C   UNK d   1     -13.698  10.457  -3.860  0.00  0.00     0.027 C 
ATOM     10  C   UNK d   1     -19.428  15.681  -3.523  0.00  0.00     0.059 C 
ATOM     11  C   UNK d   1     -14.520  10.573  -7.558  0.00  0.00     0.040 C 
ATOM     12  C   UNK d   1     -15.177  14.957  -2.475  0.00  0.00     0.004 C 
ATOM     13  C   UNK d   1     -14.369  11.403  -2.906  0.00  0.00    -0.027 C 
ATOM     14  C   UNK d   1     -20.083  17.018  -3.302  0.00  0.00    -0.024 C 
ATOM     15  C   UNK d   1     -15.068  13.648  -2.202  0.00  0.00    -0.002 C 
ATOM     16  C   UNK d   1     -14.361  12.734  -3.069  0.00  0.00    -0.004 C 
ATOM     17  C   UNK d   1     -20.013  18.106  -4.087  0.00  0.00    -0.004 C 
ATOM     18  C   UNK d   1     -18.562  19.533  -7.397  0.00  0.00     0.144 C 
ATOM     19  C   UNK d   1     -16.473  13.126  -7.388  0.00  0.00     0.283 C 
ATOM     20  C   UNK d   1     -17.561  18.470  -7.892  0.00  0.00     0.062 C 
ATOM     21  C   UNK d   1     -19.221  18.243  -5.291  0.00  0.00    -0.002 C 
ATOM     22  C   UNK d   1     -19.337  19.284  -6.128  0.00  0.00     0.005 C 
ATOM     23  C   UNK d   1     -17.783  13.460  -7.996  0.00  0.00     0.082 C 
ATOM     24  C   UNK d   1     -18.172  17.144  -8.266  0.00  0.00    -0.024 C 
ATOM     25  C   UNK d   1     -18.259  14.693  -8.224  0.00  0.00     0.006 C 
ATOM     26  C   UNK d   1     -17.662  15.964  -7.879  0.00  0.00    -0.004 C 
ENDROOT
BRANCH   5  27
ATOM     27  O   UNK d   1     -18.913  15.098  -1.255  0.00  0.00    -0.395 OA
ATOM     28  H   UNK d   1     -18.981  14.137  -1.124  0.00  0.00     0.210 HD
ENDBRANCH   5  27
BRANCH   8  29
ATOM     29  O   UNK d   1     -15.133  17.045  -1.379  0.00  0.00    -0.392 OA
ATOM     30  H   UNK d   1     -15.652  17.849  -1.551  0.00  0.00     0.210 HD
ENDBRANCH   8  29
BRANCH  18  31
ATOM     31  O   UNK d   1     -19.481  19.809  -8.458  0.00  0.00    -0.391 OA
ATOM     32  H   UNK d   1     -19.328  19.165  -9.170  0.00  0.00     0.210 HD
ENDBRANCH  18  31
TORSDOF 3
ENDMDL
MODEL 8
REMARK VINA RESULT:    -7.316      1.526      7.118
REMARK INTER + INTRA:          -7.957
REMARK INTER:                  -7.957
REMARK INTRA:                   0.000
REMARK UNBOUND:                 0.000
REMARK  3 active torsions:
REMARK  status: ('A' for Active; 'I' for Inactive)
REMARK    1  A    between atoms: O_2  and  C_8 
REMARK    2  A    between atoms: O_3  and  C_11 
REMARK    3  A    between atoms: O_4  and  C_21 
ROOT
ATOM      1  O   UNK d   1     -20.136   9.330  -6.788  0.00  0.00    -0.313 OA
ATOM      2  O   UNK d   1     -20.004  11.629  -6.969  0.00  0.00    -0.260 OA
ATOM      3  C   UNK d   1     -18.541   7.882  -7.835  0.00  0.00     0.032 C 
ATOM      4  C   UNK d   1     -15.266  12.684  -3.935  0.00  0.00     0.067 C 
ATOM      5  C   UNK d   1     -15.663  11.326  -3.335  0.00  0.00     0.124 C 
ATOM      6  C   UNK d   1     -17.650   7.496  -9.025  0.00  0.00     0.006 C 
ATOM      7  C   UNK d   1     -19.423   9.121  -8.032  0.00  0.00     0.128 C 
ATOM      8  C   UNK d   1     -14.371  12.554  -5.180  0.00  0.00     0.143 C 
ATOM      9  C   UNK d   1     -16.698   8.591  -9.522  0.00  0.00     0.027 C 
ATOM     10  C   UNK d   1     -16.785  11.405  -2.290  0.00  0.00     0.059 C 
ATOM     11  C   UNK d   1     -20.452   8.946  -9.142  0.00  0.00     0.040 C 
ATOM     12  C   UNK d   1     -15.150  12.053  -6.364  0.00  0.00     0.004 C 
ATOM     13  C   UNK d   1     -15.778   9.099  -8.450  0.00  0.00    -0.027 C 
ATOM     14  C   UNK d   1     -16.546  12.386  -1.174  0.00  0.00    -0.024 C 
ATOM     15  C   UNK d   1     -14.987  10.839  -6.909  0.00  0.00    -0.002 C 
ATOM     16  C   UNK d   1     -15.812  10.359  -7.993  0.00  0.00    -0.004 C 
ATOM     17  C   UNK d   1     -17.205  13.532  -0.934  0.00  0.00    -0.004 C 
ATOM     18  C   UNK d   1     -20.096  15.832  -2.136  0.00  0.00     0.144 C 
ATOM     19  C   UNK d   1     -20.356  10.614  -6.391  0.00  0.00     0.283 C 
ATOM     20  C   UNK d   1     -20.524  15.264  -3.503  0.00  0.00     0.062 C 
ATOM     21  C   UNK d   1     -18.250  14.106  -1.753  0.00  0.00    -0.002 C 
ATOM     22  C   UNK d   1     -18.994  15.152  -1.364  0.00  0.00     0.005 C 
ATOM     23  C   UNK d   1     -21.129  10.557  -5.127  0.00  0.00     0.082 C 
ATOM     24  C   UNK d   1     -21.112  13.877  -3.462  0.00  0.00    -0.024 C 
ATOM     25  C   UNK d   1     -21.313  11.568  -4.266  0.00  0.00     0.006 C 
ATOM     26  C   UNK d   1     -20.761  12.904  -4.318  0.00  0.00    -0.004 C 
ENDROOT
BRANCH   5  27
ATOM     27  O   UNK d   1     -14.528  10.717  -2.718  0.00  0.00    -0.395 OA
ATOM     28  H   UNK d   1     -14.705   9.765  -2.629  0.00  0.00     0.210 HD
ENDBRANCH   5  27
BRANCH   8  29
ATOM     29  O   UNK d   1     -13.871  13.848  -5.523  0.00  0.00    -0.392 OA
ATOM     30  H   UNK d   1     -13.998  14.424  -4.751  0.00  0.00     0.210 HD
ENDBRANCH   8  29
BRANCH  18  31
ATOM     31  O   UNK d   1     -21.258  15.924  -1.307  0.00  0.00    -0.391 OA
ATOM     32  H   UNK d   1     -21.299  16.821  -0.935  0.00  0.00     0.210 HD
ENDBRANCH  18  31
TORSDOF 3
ENDMDL
MODEL 9
REMARK VINA RESULT:    -7.144      3.648      7.342
REMARK INTER + INTRA:          -7.770
REMARK INTER:                  -7.770
REMARK INTRA:                   0.000
REMARK UNBOUND:                 0.000
REMARK  3 active torsions:
REMARK  status: ('A' for Active; 'I' for Inactive)
REMARK    1  A    between atoms: O_2  and  C_8 
REMARK    2  A    between atoms: O_3  and  C_11 
REMARK    3  A    between atoms: O_4  and  C_21 
ROOT
ATOM      1  O   UNK d   1     -17.070   8.680  -7.228  0.00  0.00    -0.313 OA
ATOM      2  O   UNK d   1     -17.733   9.454  -9.301  0.00  0.00    -0.260 OA
ATOM      3  C   UNK d   1     -15.298   9.716  -5.995  0.00  0.00     0.032 C 
ATOM      4  C   UNK d   1     -20.052  14.493  -7.887  0.00  0.00     0.067 C 
ATOM      5  C   UNK d   1     -20.168  13.764  -6.538  0.00  0.00     0.124 C 
ATOM      6  C   UNK d   1     -13.913  10.375  -5.925  0.00  0.00     0.006 C 
ATOM      7  C   UNK d   1     -15.732   9.216  -7.378  0.00  0.00     0.128 C 
ATOM      8  C   UNK d   1     -18.711  15.225  -8.064  0.00  0.00     0.143 C 
ATOM      9  C   UNK d   1     -13.696  11.564  -6.869  0.00  0.00     0.027 C 
ATOM     10  C   UNK d   1     -21.348  12.788  -6.450  0.00  0.00     0.059 C 
ATOM     11  C   UNK d   1     -14.838   8.106  -7.916  0.00  0.00     0.040 C 
ATOM     12  C   UNK d   1     -17.583  14.255  -8.285  0.00  0.00     0.004 C 
ATOM     13  C   UNK d   1     -14.699  12.663  -6.667  0.00  0.00    -0.027 C 
ATOM     14  C   UNK d   1     -22.687  13.374  -6.810  0.00  0.00    -0.024 C 
ATOM     15  C   UNK d   1     -16.608  14.024  -7.393  0.00  0.00    -0.002 C 
ATOM     16  C   UNK d   1     -15.588  13.024  -7.603  0.00  0.00    -0.004 C 
ATOM     17  C   UNK d   1     -23.447  13.090  -7.881  0.00  0.00    -0.004 C 
ATOM     18  C   UNK d   1     -23.713  10.906 -11.083  0.00  0.00     0.144 C 
ATOM     19  C   UNK d   1     -17.947   8.866  -8.254  0.00  0.00     0.283 C 
ATOM     20  C   UNK d   1     -22.331  10.240 -11.235  0.00  0.00     0.062 C 
ATOM     21  C   UNK d   1     -23.096  12.200  -8.966  0.00  0.00    -0.002 C 
ATOM     22  C   UNK d   1     -23.970  11.816  -9.909  0.00  0.00     0.005 C 
ATOM     23  C   UNK d   1     -19.216   8.198  -7.876  0.00  0.00     0.082 C 
ATOM     24  C   UNK d   1     -21.960   9.282 -10.132  0.00  0.00    -0.024 C 
ATOM     25  C   UNK d   1     -20.408   8.372  -8.464  0.00  0.00     0.006 C 
ATOM     26  C   UNK d   1     -20.757   9.279  -9.535  0.00  0.00    -0.004 C 
ENDROOT
BRANCH   5  27
ATOM     27  O   UNK d   1     -20.304  14.717  -5.483  0.00  0.00    -0.395 OA
ATOM     28  H   UNK d   1     -20.327  15.606  -5.877  0.00  0.00     0.210 HD
ENDBRANCH   5  27
BRANCH   8  29
ATOM     29  O   UNK d   1     -18.788  16.050  -9.228  0.00  0.00    -0.392 OA
ATOM     30  H   UNK d   1     -19.045  15.481  -9.973  0.00  0.00     0.210 HD
ENDBRANCH   8  29
BRANCH  18  31
ATOM     31  O   UNK d   1     -24.708   9.878 -11.103  0.00  0.00    -0.391 OA
ATOM     32  H   UNK d   1     -24.259   9.017 -11.061  0.00  0.00     0.210 HD
ENDBRANCH  18  31
TORSDOF 3
ENDMDL
