MODEL 1
REMARK VINA RESULT:    -7.571      0.000      0.000
REMARK INTER + INTRA:          -8.235
REMARK INTER:                  -8.235
REMARK INTRA:                   0.000
REMARK UNBOUND:                 0.000
REMARK  3 active torsions:
REMARK  status: ('A' for Active; 'I' for Inactive)
REMARK    1  A    between atoms: O_2  and  C_8 
REMARK    2  A    between atoms: O_3  and  C_11 
REMARK    3  A    between atoms: O_4  and  C_21 
ROOT
ATOM      1  O   UNK d   1       0.102   4.201 -12.275  0.00  0.00    -0.313 OA
ATOM      2  O   UNK d   1       0.520   5.402 -14.204  0.00  0.00    -0.260 OA
ATOM      3  C   UNK d   1       0.653   5.055 -10.106  0.00  0.00     0.032 C 
ATOM      4  C   UNK d   1      -3.214   9.703 -13.632  0.00  0.00     0.067 C 
ATOM      5  C   UNK d   1      -3.882   8.656 -12.727  0.00  0.00     0.124 C 
ATOM      6  C   UNK d   1       1.600   5.798  -9.153  0.00  0.00     0.006 C 
ATOM      7  C   UNK d   1       1.156   4.876 -11.544  0.00  0.00     0.128 C 
ATOM      8  C   UNK d   1      -2.186  10.574 -12.891  0.00  0.00     0.143 C 
ATOM      9  C   UNK d   1       2.031   7.199  -9.604  0.00  0.00     0.027 C 
ATOM     10  C   UNK d   1      -4.679   7.585 -13.485  0.00  0.00     0.059 C 
ATOM     11  C   UNK d   1       2.413   4.019 -11.631  0.00  0.00     0.040 C 
ATOM     12  C   UNK d   1      -0.941   9.795 -12.568  0.00  0.00     0.004 C 
ATOM     13  C   UNK d   1       0.870   8.118  -9.851  0.00  0.00    -0.027 C 
ATOM     14  C   UNK d   1      -5.699   8.120 -14.454  0.00  0.00    -0.024 C 
ATOM     15  C   UNK d   1      -0.582   9.439 -11.326  0.00  0.00    -0.002 C 
ATOM     16  C   UNK d   1       0.576   8.618 -11.060  0.00  0.00    -0.004 C 
ATOM     17  C   UNK d   1      -5.676   8.042 -15.795  0.00  0.00    -0.004 C 
ATOM     18  C   UNK d   1      -3.689   6.705 -18.855  0.00  0.00     0.144 C 
ATOM     19  C   UNK d   1      -0.095   4.556 -13.575  0.00  0.00     0.283 C 
ATOM     20  C   UNK d   1      -2.341   6.225 -18.284  0.00  0.00     0.062 C 
ATOM     21  C   UNK d   1      -4.612   7.484 -16.602  0.00  0.00    -0.002 C 
ATOM     22  C   UNK d   1      -4.729   7.269 -17.921  0.00  0.00     0.005 C 
ATOM     23  C   UNK d   1      -1.187   3.704 -14.103  0.00  0.00     0.082 C 
ATOM     24  C   UNK d   1      -2.430   5.061 -17.330  0.00  0.00    -0.024 C 
ATOM     25  C   UNK d   1      -1.875   3.910 -15.236  0.00  0.00     0.006 C 
ATOM     26  C   UNK d   1      -1.774   5.019 -16.158  0.00  0.00    -0.004 C 
ENDROOT
BRANCH   5  27
ATOM     27  O   UNK d   1      -4.768   9.300 -11.811  0.00  0.00    -0.395 OA
ATOM     28  H   UNK d   1      -4.416   9.182 -10.913  0.00  0.00     0.210 HD
ENDBRANCH   5  27
BRANCH   8  29
ATOM     29  O   UNK d   1      -1.797  11.651 -13.745  0.00  0.00    -0.392 OA
ATOM     30  H   UNK d   1      -0.828  11.723 -13.701  0.00  0.00     0.210 HD
ENDBRANCH   8  29
BRANCH  18  31
ATOM     31  O   UNK d   1      -4.267   5.629 -19.601  0.00  0.00    -0.391 OA
ATOM     32  H   UNK d   1      -3.574   4.969 -19.770  0.00  0.00     0.210 HD
ENDBRANCH  18  31
TORSDOF 3
ENDMDL
MODEL 2
REMARK VINA RESULT:    -7.390      2.408      5.178
REMARK INTER + INTRA:          -8.038
REMARK INTER:                  -8.038
REMARK INTRA:                   0.000
REMARK UNBOUND:                 0.000
REMARK  3 active torsions:
REMARK  status: ('A' for Active; 'I' for Inactive)
REMARK    1  A    between atoms: O_2  and  C_8 
REMARK    2  A    between atoms: O_3  and  C_11 
REMARK    3  A    between atoms: O_4  and  C_21 
ROOT
ATOM      1  O   UNK d   1      -1.921   3.630 -15.052  0.00  0.00    -0.313 OA
ATOM      2  O   UNK d   1      -1.331   5.730 -15.813  0.00  0.00    -0.260 OA
ATOM      3  C   UNK d   1      -0.301   2.092 -14.191  0.00  0.00     0.032 C 
ATOM      4  C   UNK d   1       0.227   8.256 -10.918  0.00  0.00     0.067 C 
ATOM      5  C   UNK d   1      -0.685   7.150 -10.362  0.00  0.00     0.124 C 
ATOM      6  C   UNK d   1       1.080   1.421 -14.243  0.00  0.00     0.006 C 
ATOM      7  C   UNK d   1      -0.604   3.087 -15.317  0.00  0.00     0.128 C 
ATOM      8  C   UNK d   1       1.688   7.806 -11.084  0.00  0.00     0.143 C 
ATOM      9  C   UNK d   1       2.280   2.376 -14.268  0.00  0.00     0.027 C 
ATOM     10  C   UNK d   1      -2.185   7.460 -10.466  0.00  0.00     0.059 C 
ATOM     11  C   UNK d   1      -0.631   2.436 -16.695  0.00  0.00     0.040 C 
ATOM     12  C   UNK d   1       1.839   6.852 -12.236  0.00  0.00     0.004 C 
ATOM     13  C   UNK d   1       2.307   3.315 -13.096  0.00  0.00    -0.027 C 
ATOM     14  C   UNK d   1      -2.602   8.782  -9.881  0.00  0.00    -0.024 C 
ATOM     15  C   UNK d   1       2.126   5.549 -12.096  0.00  0.00    -0.002 C 
ATOM     16  C   UNK d   1       2.180   4.644 -13.220  0.00  0.00    -0.004 C 
ATOM     17  C   UNK d   1      -3.054   9.864 -10.537  0.00  0.00    -0.004 C 
ATOM     18  C   UNK d   1      -3.962  11.294 -14.034  0.00  0.00     0.144 C 
ATOM     19  C   UNK d   1      -2.139   4.941 -15.349  0.00  0.00     0.283 C 
ATOM     20  C   UNK d   1      -3.445  10.252 -15.045  0.00  0.00     0.062 C 
ATOM     21  C   UNK d   1      -3.165  10.009 -11.972  0.00  0.00    -0.002 C 
ATOM     22  C   UNK d   1      -3.795  11.039 -12.558  0.00  0.00     0.005 C 
ATOM     23  C   UNK d   1      -3.556   5.237 -15.028  0.00  0.00     0.082 C 
ATOM     24  C   UNK d   1      -4.123   8.907 -14.978  0.00  0.00    -0.024 C 
ATOM     25  C   UNK d   1      -4.104   6.455 -14.909  0.00  0.00     0.006 C 
ATOM     26  C   UNK d   1      -3.452   7.744 -14.992  0.00  0.00    -0.004 C 
ENDROOT
BRANCH   5  27
ATOM     27  O   UNK d   1      -0.377   6.913  -8.988  0.00  0.00    -0.395 OA
ATOM     28  H   UNK d   1      -0.436   5.956  -8.824  0.00  0.00     0.210 HD
ENDBRANCH   5  27
BRANCH   8  29
ATOM     29  O   UNK d   1       2.490   8.951 -11.380  0.00  0.00    -0.392 OA
ATOM     30  H   UNK d   1       2.948   9.207 -10.561  0.00  0.00     0.210 HD
ENDBRANCH   8  29
BRANCH  18  31
ATOM     31  O   UNK d   1      -5.344  11.537 -14.311  0.00  0.00    -0.391 OA
ATOM     32  H   UNK d   1      -5.674  10.816 -14.873  0.00  0.00     0.210 HD
ENDBRANCH  18  31
TORSDOF 3
ENDMDL
MODEL 3
REMARK VINA RESULT:    -7.137      1.758      2.581
REMARK INTER + INTRA:          -7.763
REMARK INTER:                  -7.763
REMARK INTRA:                   0.000
REMARK UNBOUND:                 0.000
REMARK  3 active torsions:
REMARK  status: ('A' for Active; 'I' for Inactive)
REMARK    1  A    between atoms: O_2  and  C_8 
REMARK    2  A    between atoms: O_3  and  C_11 
REMARK    3  A    between atoms: O_4  and  C_21 
ROOT
ATOM      1  O   UNK d   1      -0.769   5.368 -11.330  0.00  0.00    -0.313 OA
ATOM      2  O   UNK d   1       0.272   5.753 -13.356  0.00  0.00    -0.260 OA
ATOM      3  C   UNK d   1      -1.163   7.126  -9.752  0.00  0.00     0.032 C 
ATOM      4  C   UNK d   1      -3.697   8.890 -16.034  0.00  0.00     0.067 C 
ATOM      5  C   UNK d   1      -4.584   8.169 -15.007  0.00  0.00     0.124 C 
ATOM      6  C   UNK d   1      -0.716   8.392  -9.008  0.00  0.00     0.006 C 
ATOM      7  C   UNK d   1      -0.132   6.510 -10.706  0.00  0.00     0.128 C 
ATOM      8  C   UNK d   1      -3.102  10.204 -15.500  0.00  0.00     0.143 C 
ATOM      9  C   UNK d   1      -0.248   9.552  -9.896  0.00  0.00     0.027 C 
ATOM     10  C   UNK d   1      -4.946   6.727 -15.390  0.00  0.00     0.059 C 
ATOM     11  C   UNK d   1       1.120   6.019  -9.990  0.00  0.00     0.040 C 
ATOM     12  C   UNK d   1      -2.025   9.943 -14.483  0.00  0.00     0.004 C 
ATOM     13  C   UNK d   1      -1.288   9.987 -10.888  0.00  0.00    -0.027 C 
ATOM     14  C   UNK d   1      -5.548   6.565 -16.760  0.00  0.00    -0.024 C 
ATOM     15  C   UNK d   1      -2.149  10.215 -13.176  0.00  0.00    -0.002 C 
ATOM     16  C   UNK d   1      -1.127   9.873 -12.215  0.00  0.00    -0.004 C 
ATOM     17  C   UNK d   1      -5.002   5.964 -17.830  0.00  0.00    -0.004 C 
ATOM     18  C   UNK d   1      -1.896   4.028 -19.132  0.00  0.00     0.144 C 
ATOM     19  C   UNK d   1      -0.474   5.111 -12.635  0.00  0.00     0.283 C 
ATOM     20  C   UNK d   1      -0.841   4.156 -18.015  0.00  0.00     0.062 C 
ATOM     21  C   UNK d   1      -3.672   5.401 -17.910  0.00  0.00    -0.002 C 
ATOM     22  C   UNK d   1      -3.254   4.653 -18.942  0.00  0.00     0.005 C 
ATOM     23  C   UNK d   1      -1.211   3.884 -13.020  0.00  0.00     0.082 C 
ATOM     24  C   UNK d   1      -1.207   3.490 -16.714  0.00  0.00    -0.024 C 
ATOM     25  C   UNK d   1      -1.421   3.446 -14.270  0.00  0.00     0.006 C 
ATOM     26  C   UNK d   1      -1.053   4.080 -15.517  0.00  0.00    -0.004 C 
ENDROOT
BRANCH   5  27
ATOM     27  O   UNK d   1      -5.800   8.894 -14.821  0.00  0.00    -0.395 OA
ATOM     28  H   UNK d   1      -5.846   9.590 -15.499  0.00  0.00     0.210 HD
ENDBRANCH   5  27
BRANCH   8  29
ATOM     29  O   UNK d   1      -2.493  10.906 -16.585  0.00  0.00    -0.392 OA
ATOM     30  H   UNK d   1      -2.228  11.781 -16.255  0.00  0.00     0.210 HD
ENDBRANCH   8  29
BRANCH  18  31
ATOM     31  O   UNK d   1      -2.059   2.639 -19.434  0.00  0.00    -0.391 OA
ATOM     32  H   UNK d   1      -2.957   2.373 -19.171  0.00  0.00     0.210 HD
ENDBRANCH  18  31
TORSDOF 3
ENDMDL
MODEL 4
REMARK VINA RESULT:    -7.109      2.380      3.981
REMARK INTER + INTRA:          -7.732
REMARK INTER:                  -7.732
REMARK INTRA:                   0.000
REMARK UNBOUND:                 0.000
REMARK  3 active torsions:
REMARK  status: ('A' for Active; 'I' for Inactive)
REMARK    1  A    between atoms: O_2  and  C_8 
REMARK    2  A    between atoms: O_3  and  C_11 
REMARK    3  A    between atoms: O_4  and  C_21 
ROOT
ATOM      1  O   UNK d   1      -2.726   4.260 -15.813  0.00  0.00    -0.313 OA
ATOM      2  O   UNK d   1      -2.394   6.369 -16.696  0.00  0.00    -0.260 OA
ATOM      3  C   UNK d   1      -1.356   3.394 -14.049  0.00  0.00     0.032 C 
ATOM      4  C   UNK d   1      -3.936   9.653 -12.268  0.00  0.00     0.067 C 
ATOM      5  C   UNK d   1      -4.694   8.364 -11.913  0.00  0.00     0.124 C 
ATOM      6  C   UNK d   1       0.012   3.197 -13.380  0.00  0.00     0.006 C 
ATOM      7  C   UNK d   1      -1.346   4.145 -15.386  0.00  0.00     0.128 C 
ATOM      8  C   UNK d   1      -2.501   9.680 -11.714  0.00  0.00     0.143 C 
ATOM      9  C   UNK d   1       0.811   4.479 -13.114  0.00  0.00     0.027 C 
ATOM     10  C   UNK d   1      -6.003   8.170 -12.690  0.00  0.00     0.059 C 
ATOM     11  C   UNK d   1      -0.576   3.408 -16.475  0.00  0.00     0.040 C 
ATOM     12  C   UNK d   1      -1.607   8.732 -12.465  0.00  0.00     0.004 C 
ATOM     13  C   UNK d   1       0.064   5.470 -12.268  0.00  0.00    -0.027 C 
ATOM     14  C   UNK d   1      -6.956   9.334 -12.631  0.00  0.00    -0.024 C 
ATOM     15  C   UNK d   1      -1.104   7.604 -11.941  0.00  0.00    -0.002 C 
ATOM     16  C   UNK d   1      -0.318   6.674 -12.718  0.00  0.00    -0.004 C 
ATOM     17  C   UNK d   1      -7.308  10.158 -13.633  0.00  0.00    -0.004 C 
ATOM     18  C   UNK d   1      -6.834  10.931 -17.410  0.00  0.00     0.144 C 
ATOM     19  C   UNK d   1      -3.100   5.405 -16.449  0.00  0.00     0.283 C 
ATOM     20  C   UNK d   1      -5.671  10.029 -17.866  0.00  0.00     0.062 C 
ATOM     21  C   UNK d   1      -6.781  10.141 -14.980  0.00  0.00    -0.002 C 
ATOM     22  C   UNK d   1      -7.305  10.865 -15.980  0.00  0.00     0.005 C 
ATOM     23  C   UNK d   1      -4.530   5.259 -16.813  0.00  0.00     0.082 C 
ATOM     24  C   UNK d   1      -5.947   8.549 -17.796  0.00  0.00    -0.024 C 
ATOM     25  C   UNK d   1      -5.354   6.245 -17.197  0.00  0.00     0.006 C 
ATOM     26  C   UNK d   1      -5.080   7.663 -17.280  0.00  0.00    -0.004 C 
ENDROOT
BRANCH   5  27
ATOM     27  O   UNK d   1      -5.003   8.351 -10.519  0.00  0.00    -0.395 OA
ATOM     28  H   UNK d   1      -5.593   9.100 -10.331  0.00  0.00     0.210 HD
ENDBRANCH   5  27
BRANCH   8  29
ATOM     29  O   UNK d   1      -1.965  10.992 -11.893  0.00  0.00    -0.392 OA
ATOM     30  H   UNK d   1      -2.702  11.622 -11.818  0.00  0.00     0.210 HD
ENDBRANCH   8  29
BRANCH  18  31
ATOM     31  O   UNK d   1      -7.947  10.698 -18.279  0.00  0.00    -0.391 OA
ATOM     32  H   UNK d   1      -7.668  10.075 -18.971  0.00  0.00     0.210 HD
ENDBRANCH  18  31
TORSDOF 3
ENDMDL
MODEL 5
REMARK VINA RESULT:    -6.840      2.472      5.249
REMARK INTER + INTRA:          -7.440
REMARK INTER:                  -7.440
REMARK INTRA:                   0.000
REMARK UNBOUND:                 0.000
REMARK  3 active torsions:
REMARK  status: ('A' for Active; 'I' for Inactive)
REMARK    1  A    between atoms: O_2  and  C_8 
REMARK    2  A    between atoms: O_3  and  C_11 
REMARK    3  A    between atoms: O_4  and  C_21 
ROOT
ATOM      1  O   UNK d   1      -1.340   9.010  -9.807  0.00  0.00    -0.313 OA
ATOM      2  O   UNK d   1       0.158   8.433 -11.468  0.00  0.00    -0.260 OA
ATOM      3  C   UNK d   1      -2.458  11.128  -9.787  0.00  0.00     0.032 C 
ATOM      4  C   UNK d   1      -3.341   7.978 -15.975  0.00  0.00     0.067 C 
ATOM      5  C   UNK d   1      -4.352   7.765 -14.837  0.00  0.00     0.124 C 
ATOM      6  C   UNK d   1      -2.460  12.650  -9.985  0.00  0.00     0.006 C 
ATOM      7  C   UNK d   1      -1.109  10.428  -9.994  0.00  0.00     0.128 C 
ATOM      8  C   UNK d   1      -3.152   9.458 -16.345  0.00  0.00     0.143 C 
ATOM      9  C   UNK d   1      -1.957  13.143 -11.347  0.00  0.00     0.027 C 
ATOM     10  C   UNK d   1      -4.343   6.350 -14.243  0.00  0.00     0.059 C 
ATOM     11  C   UNK d   1      -0.051  10.869  -8.989  0.00  0.00     0.040 C 
ATOM     12  C   UNK d   1      -2.384  10.194 -15.281  0.00  0.00     0.004 C 
ATOM     13  C   UNK d   1      -2.726  12.564 -12.500  0.00  0.00    -0.027 C 
ATOM     14  C   UNK d   1      -4.492   5.238 -15.248  0.00  0.00    -0.024 C 
ATOM     15  C   UNK d   1      -2.921  11.125 -14.479  0.00  0.00    -0.002 C 
ATOM     16  C   UNK d   1      -2.175  11.750 -13.412  0.00  0.00    -0.004 C 
ATOM     17  C   UNK d   1      -3.570   4.330 -15.609  0.00  0.00    -0.004 C 
ATOM     18  C   UNK d   1       0.056   3.082 -14.989  0.00  0.00     0.144 C 
ATOM     19  C   UNK d   1      -0.645   8.144 -10.597  0.00  0.00     0.283 C 
ATOM     20  C   UNK d   1       0.710   4.160 -14.102  0.00  0.00     0.062 C 
ATOM     21  C   UNK d   1      -2.198   4.275 -15.152  0.00  0.00    -0.002 C 
ATOM     22  C   UNK d   1      -1.383   3.240 -15.404  0.00  0.00     0.005 C 
ATOM     23  C   UNK d   1      -1.026   6.771 -10.186  0.00  0.00     0.082 C 
ATOM     24  C   UNK d   1       0.103   4.312 -12.730  0.00  0.00    -0.024 C 
ATOM     25  C   UNK d   1      -0.793   5.645 -10.876  0.00  0.00     0.006 C 
ATOM     26  C   UNK d   1      -0.194   5.503 -12.185  0.00  0.00    -0.004 C 
ENDROOT
BRANCH   5  27
ATOM     27  O   UNK d   1      -5.674   8.039 -15.304  0.00  0.00    -0.395 OA
ATOM     28  H   UNK d   1      -5.606   8.600 -16.096  0.00  0.00     0.210 HD
ENDBRANCH   5  27
BRANCH   8  29
ATOM     29  O   UNK d   1      -2.384   9.537 -17.546  0.00  0.00    -0.392 OA
ATOM     30  H   UNK d   1      -2.768   8.908 -18.181  0.00  0.00     0.210 HD
ENDBRANCH   8  29
BRANCH  18  31
ATOM     31  O   UNK d   1       0.220   1.815 -14.345  0.00  0.00    -0.391 OA
ATOM     32  H   UNK d   1       0.608   1.967 -13.466  0.00  0.00     0.210 HD
ENDBRANCH  18  31
TORSDOF 3
ENDMDL
MODEL 6
REMARK VINA RESULT:    -6.769      3.696      7.935
REMARK INTER + INTRA:          -7.363
REMARK INTER:                  -7.363
REMARK INTRA:                   0.000
REMARK UNBOUND:                 0.000
REMARK  3 active torsions:
REMARK  status: ('A' for Active; 'I' for Inactive)
REMARK    1  A    between atoms: O_2  and  C_8 
REMARK    2  A    between atoms: O_3  and  C_11 
REMARK    3  A    between atoms: O_4  and  C_21 
ROOT
ATOM      1  O   UNK d   1      -5.848   8.983 -15.029  0.00  0.00    -0.313 OA
ATOM      2  O   UNK d   1      -3.552   8.753 -14.938  0.00  0.00    -0.260 OA
ATOM      3  C   UNK d   1      -6.902  10.695 -16.331  0.00  0.00     0.032 C 
ATOM      4  C   UNK d   1      -2.422   7.051 -20.286  0.00  0.00     0.067 C 
ATOM      5  C   UNK d   1      -3.897   6.631 -20.184  0.00  0.00     0.124 C 
ATOM      6  C   UNK d   1      -6.978  12.139 -16.845  0.00  0.00     0.006 C 
ATOM      7  C   UNK d   1      -5.765  10.394 -15.346  0.00  0.00     0.128 C 
ATOM      8  C   UNK d   1      -2.239   8.499 -20.770  0.00  0.00     0.143 C 
ATOM      9  C   UNK d   1      -5.709  12.670 -17.523  0.00  0.00     0.027 C 
ATOM     10  C   UNK d   1      -4.126   5.315 -19.429  0.00  0.00     0.059 C 
ATOM     11  C   UNK d   1      -5.885  11.177 -14.044  0.00  0.00     0.040 C 
ATOM     12  C   UNK d   1      -2.635   9.486 -19.706  0.00  0.00     0.004 C 
ATOM     13  C   UNK d   1      -5.270  11.828 -18.686  0.00  0.00    -0.027 C 
ATOM     14  C   UNK d   1      -3.314   4.148 -19.924  0.00  0.00    -0.024 C 
ATOM     15  C   UNK d   1      -3.717  10.274 -19.782  0.00  0.00    -0.002 C 
ATOM     16  C   UNK d   1      -4.114  11.149 -18.703  0.00  0.00    -0.004 C 
ATOM     17  C   UNK d   1      -2.312   3.517 -19.290  0.00  0.00    -0.004 C 
ATOM     18  C   UNK d   1      -0.223   3.387 -16.017  0.00  0.00     0.144 C 
ATOM     19  C   UNK d   1      -4.682   8.302 -14.850  0.00  0.00     0.283 C 
ATOM     20  C   UNK d   1      -0.612   4.658 -15.237  0.00  0.00     0.062 C 
ATOM     21  C   UNK d   1      -1.747   3.881 -18.008  0.00  0.00    -0.002 C 
ATOM     22  C   UNK d   1      -0.877   3.105 -17.345  0.00  0.00     0.005 C 
ATOM     23  C   UNK d   1      -5.036   6.906 -14.501  0.00  0.00     0.082 C 
ATOM     24  C   UNK d   1      -2.049   4.715 -14.787  0.00  0.00    -0.024 C 
ATOM     25  C   UNK d   1      -4.206   5.852 -14.515  0.00  0.00     0.006 C 
ATOM     26  C   UNK d   1      -2.822   5.805 -14.930  0.00  0.00    -0.004 C 
ENDROOT
BRANCH   5  27
ATOM     27  O   UNK d   1      -4.452   6.491 -21.493  0.00  0.00    -0.395 OA
ATOM     28  H   UNK d   1      -3.736   6.241 -22.102  0.00  0.00     0.210 HD
ENDBRANCH   5  27
BRANCH   8  29
ATOM     29  O   UNK d   1      -0.855   8.718 -21.050  0.00  0.00    -0.392 OA
ATOM     30  H   UNK d   1      -0.544   9.422 -20.457  0.00  0.00     0.210 HD
ENDBRANCH   8  29
BRANCH  18  31
ATOM     31  O   UNK d   1      -0.410   2.260 -15.156  0.00  0.00    -0.391 OA
ATOM     32  H   UNK d   1       0.466   1.918 -14.906  0.00  0.00     0.210 HD
ENDBRANCH  18  31
TORSDOF 3
ENDMDL
MODEL 7
REMARK VINA RESULT:    -6.586      3.810      5.579
REMARK INTER + INTRA:          -7.164
REMARK INTER:                  -7.164
REMARK INTRA:                   0.000
REMARK UNBOUND:                 0.000
REMARK  3 active torsions:
REMARK  status: ('A' for Active; 'I' for Inactive)
REMARK    1  A    between atoms: O_2  and  C_8 
REMARK    2  A    between atoms: O_3  and  C_11 
REMARK    3  A    between atoms: O_4  and  C_21 
ROOT
ATOM      1  O   UNK d   1      -4.847   9.630 -12.099  0.00  0.00    -0.313 OA
ATOM      2  O   UNK d   1      -2.968   8.433 -12.709  0.00  0.00    -0.260 OA
ATOM      3  C   UNK d   1      -4.727  11.926 -11.428  0.00  0.00     0.032 C 
ATOM      4  C   UNK d   1      -1.572  11.036 -17.613  0.00  0.00     0.067 C 
ATOM      5  C   UNK d   1      -3.064  11.399 -17.540  0.00  0.00     0.124 C 
ATOM      6  C   UNK d   1      -4.045  13.072 -10.668  0.00  0.00     0.006 C 
ATOM      7  C   UNK d   1      -4.084  10.542 -11.272  0.00  0.00     0.128 C 
ATOM      8  C   UNK d   1      -0.669  12.047 -16.886  0.00  0.00     0.143 C 
ATOM      9  C   UNK d   1      -2.558  13.283 -10.980  0.00  0.00     0.027 C 
ATOM     10  C   UNK d   1      -4.008  10.274 -17.986  0.00  0.00     0.059 C 
ATOM     11  C   UNK d   1      -4.126  10.027  -9.839  0.00  0.00     0.040 C 
ATOM     12  C   UNK d   1      -0.810  11.933 -15.394  0.00  0.00     0.004 C 
ATOM     13  C   UNK d   1      -2.294  13.525 -12.439  0.00  0.00    -0.027 C 
ATOM     14  C   UNK d   1      -3.708   9.692 -19.341  0.00  0.00    -0.024 C 
ATOM     15  C   UNK d   1      -1.388  12.865 -14.623  0.00  0.00    -0.002 C 
ATOM     16  C   UNK d   1      -1.583  12.684 -13.203  0.00  0.00    -0.004 C 
ATOM     17  C   UNK d   1      -3.251   8.461 -19.623  0.00  0.00    -0.004 C 
ATOM     18  C   UNK d   1      -2.200   5.048 -18.093  0.00  0.00     0.144 C 
ATOM     19  C   UNK d   1      -4.170   8.638 -12.742  0.00  0.00     0.283 C 
ATOM     20  C   UNK d   1      -2.148   5.285 -16.571  0.00  0.00     0.062 C 
ATOM     21  C   UNK d   1      -2.877   7.446 -18.662  0.00  0.00    -0.002 C 
ATOM     22  C   UNK d   1      -2.606   6.178 -19.004  0.00  0.00     0.005 C 
ATOM     23  C   UNK d   1      -5.170   7.828 -13.479  0.00  0.00     0.082 C 
ATOM     24  C   UNK d   1      -3.472   5.615 -15.932  0.00  0.00    -0.024 C 
ATOM     25  C   UNK d   1      -4.909   6.940 -14.449  0.00  0.00     0.006 C 
ATOM     26  C   UNK d   1      -3.634   6.613 -15.048  0.00  0.00    -0.004 C 
ENDROOT
BRANCH   5  27
ATOM     27  O   UNK d   1      -3.325  12.543 -18.355  0.00  0.00    -0.395 OA
ATOM     28  H   UNK d   1      -3.908  13.143 -17.859  0.00  0.00     0.210 HD
ENDBRANCH   5  27
BRANCH   8  29
ATOM     29  O   UNK d   1       0.693  11.755 -17.202  0.00  0.00    -0.392 OA
ATOM     30  H   UNK d   1       1.244  12.131 -16.495  0.00  0.00     0.210 HD
ENDBRANCH   8  29
BRANCH  18  31
ATOM     31  O   UNK d   1      -3.047   3.922 -18.341  0.00  0.00    -0.391 OA
ATOM     32  H   UNK d   1      -2.605   3.343 -18.985  0.00  0.00     0.210 HD
ENDBRANCH  18  31
TORSDOF 3
ENDMDL
MODEL 8
REMARK VINA RESULT:    -6.454      2.386      6.984
REMARK INTER + INTRA:          -7.020
REMARK INTER:                  -7.020
REMARK INTRA:                   0.000
REMARK UNBOUND:                 0.000
REMARK  3 active torsions:
REMARK  status: ('A' for Active; 'I' for Inactive)
REMARK    1  A    between atoms: O_2  and  C_8 
REMARK    2  A    between atoms: O_3  and  C_11 
REMARK    3  A    between atoms: O_4  and  C_21 
ROOT
ATOM      1  O   UNK d   1      -3.288  10.539 -11.302  0.00  0.00    -0.313 OA
ATOM      2  O   UNK d   1      -1.280  10.258 -12.409  0.00  0.00    -0.260 OA
ATOM      3  C   UNK d   1      -5.092  11.798 -12.249  0.00  0.00     0.032 C 
ATOM      4  C   UNK d   1      -2.903   6.922 -16.768  0.00  0.00     0.067 C 
ATOM      5  C   UNK d   1      -4.031   6.614 -15.770  0.00  0.00     0.124 C 
ATOM      6  C   UNK d   1      -5.625  13.011 -13.025  0.00  0.00     0.006 C 
ATOM      7  C   UNK d   1      -3.579  11.776 -11.999  0.00  0.00     0.128 C 
ATOM      8  C   UNK d   1      -3.203   8.137 -17.662  0.00  0.00     0.143 C 
ATOM      9  C   UNK d   1      -4.988  13.251 -14.400  0.00  0.00     0.027 C 
ATOM     10  C   UNK d   1      -3.644   5.612 -14.674  0.00  0.00     0.059 C 
ATOM     11  C   UNK d   1      -3.104  12.932 -11.127  0.00  0.00     0.040 C 
ATOM     12  C   UNK d   1      -3.113   9.422 -16.886  0.00  0.00     0.004 C 
ATOM     13  C   UNK d   1      -5.114  12.069 -15.318  0.00  0.00    -0.027 C 
ATOM     14  C   UNK d   1      -3.062   4.317 -15.173  0.00  0.00    -0.024 C 
ATOM     15  C   UNK d   1      -4.171  10.190 -16.584  0.00  0.00    -0.002 C 
ATOM     16  C   UNK d   1      -4.058  11.374 -15.765  0.00  0.00    -0.004 C 
ATOM     17  C   UNK d   1      -1.800   3.877 -15.034  0.00  0.00    -0.004 C 
ATOM     18  C   UNK d   1       1.691   4.696 -13.539  0.00  0.00     0.144 C 
ATOM     19  C   UNK d   1      -2.120   9.903 -11.599  0.00  0.00     0.283 C 
ATOM     20  C   UNK d   1       1.598   6.162 -13.072  0.00  0.00     0.062 C 
ATOM     21  C   UNK d   1      -0.703   4.601 -14.429  0.00  0.00    -0.002 C 
ATOM     22  C   UNK d   1       0.483   4.038 -14.155  0.00  0.00     0.005 C 
ATOM     23  C   UNK d   1      -2.041   8.702 -10.734  0.00  0.00     0.082 C 
ATOM     24  C   UNK d   1       0.619   6.414 -11.954  0.00  0.00    -0.024 C 
ATOM     25  C   UNK d   1      -1.207   7.664 -10.894  0.00  0.00     0.006 C 
ATOM     26  C   UNK d   1      -0.256   7.434 -11.959  0.00  0.00    -0.004 C 
ENDROOT
BRANCH   5  27
ATOM     27  O   UNK d   1      -5.164   6.093 -16.465  0.00  0.00    -0.395 OA
ATOM     28  H   UNK d   1      -5.451   6.754 -17.118  0.00  0.00     0.210 HD
ENDBRANCH   5  27
BRANCH   8  29
ATOM     29  O   UNK d   1      -2.218   8.201 -18.695  0.00  0.00    -0.392 OA
ATOM     30  H   UNK d   1      -2.678   8.087 -19.544  0.00  0.00     0.210 HD
ENDBRANCH   8  29
BRANCH  18  31
ATOM     31  O   UNK d   1       2.141   3.904 -12.436  0.00  0.00    -0.391 OA
ATOM     32  H   UNK d   1       1.437   3.275 -12.203  0.00  0.00     0.210 HD
ENDBRANCH  18  31
TORSDOF 3
ENDMDL
MODEL 9
REMARK VINA RESULT:    -6.147      2.566      6.405
REMARK INTER + INTRA:          -6.686
REMARK INTER:                  -6.686
REMARK INTRA:                   0.000
REMARK UNBOUND:                 0.000
REMARK  3 active torsions:
REMARK  status: ('A' for Active; 'I' for Inactive)
REMARK    1  A    between atoms: O_2  and  C_8 
REMARK    2  A    between atoms: O_3  and  C_11 
REMARK    3  A    between atoms: O_4  and  C_21 
ROOT
ATOM      1  O   UNK d   1       1.204   7.112 -11.226  0.00  0.00    -0.313 OA
ATOM      2  O   UNK d   1      -0.900   7.213 -10.277  0.00  0.00    -0.260 OA
ATOM      3  C   UNK d   1       1.759   5.501 -12.909  0.00  0.00     0.032 C 
ATOM      4  C   UNK d   1      -4.012   9.020 -14.729  0.00  0.00     0.067 C 
ATOM      5  C   UNK d   1      -2.623   9.515 -15.163  0.00  0.00     0.124 C 
ATOM      6  C   UNK d   1       1.693   4.079 -13.485  0.00  0.00     0.006 C 
ATOM      7  C   UNK d   1       1.062   5.708 -11.558  0.00  0.00     0.128 C 
ATOM      8  C   UNK d   1      -4.306   7.580 -15.181  0.00  0.00     0.143 C 
ATOM      9  C   UNK d   1       0.283   3.502 -13.668  0.00  0.00     0.027 C 
ATOM     10  C   UNK d   1      -2.179  10.817 -14.482  0.00  0.00     0.059 C 
ATOM     11  C   UNK d   1       1.690   4.892 -10.435  0.00  0.00     0.040 C 
ATOM     12  C   UNK d   1      -3.504   6.583 -14.391  0.00  0.00     0.004 C 
ATOM     13  C   UNK d   1      -0.590   4.356 -14.542  0.00  0.00    -0.027 C 
ATOM     14  C   UNK d   1      -3.161  11.954 -14.582  0.00  0.00    -0.024 C 
ATOM     15  C   UNK d   1      -2.499   5.857 -14.903  0.00  0.00    -0.002 C 
ATOM     16  C   UNK d   1      -1.694   4.971 -14.094  0.00  0.00    -0.004 C 
ATOM     17  C   UNK d   1      -3.877  12.509 -13.590  0.00  0.00    -0.004 C 
ATOM     18  C   UNK d   1      -4.595  12.423  -9.773  0.00  0.00     0.144 C 
ATOM     19  C   UNK d   1       0.163   7.722 -10.593  0.00  0.00     0.283 C 
ATOM     20  C   UNK d   1      -3.893  11.151  -9.257  0.00  0.00     0.062 C 
ATOM     21  C   UNK d   1      -3.907  12.075 -12.210  0.00  0.00    -0.002 C 
ATOM     22  C   UNK d   1      -4.495  12.781 -11.233  0.00  0.00     0.005 C 
ATOM     23  C   UNK d   1       0.568   9.124 -10.331  0.00  0.00     0.082 C 
ATOM     24  C   UNK d   1      -2.391  11.157  -9.378  0.00  0.00    -0.024 C 
ATOM     25  C   UNK d   1      -0.247  10.131  -9.984  0.00  0.00     0.006 C 
ATOM     26  C   UNK d   1      -1.687  10.116  -9.852  0.00  0.00    -0.004 C 
ENDROOT
BRANCH   5  27
ATOM     27  O   UNK d   1      -2.603   9.727 -16.575  0.00  0.00    -0.395 OA
ATOM     28  H   UNK d   1      -1.923  10.393 -16.773  0.00  0.00     0.210 HD
ENDBRANCH   5  27
BRANCH   8  29
ATOM     29  O   UNK d   1      -5.685   7.295 -14.938  0.00  0.00    -0.392 OA
ATOM     30  H   UNK d   1      -6.094   8.106 -14.592  0.00  0.00     0.210 HD
ENDBRANCH   8  29
BRANCH  18  31
ATOM     31  O   UNK d   1      -4.143  13.530  -8.988  0.00  0.00    -0.391 OA
ATOM     32  H   UNK d   1      -3.323  13.871  -9.385  0.00  0.00     0.210 HD
ENDBRANCH  18  31
TORSDOF 3
ENDMDL
