MODEL 1
REMARK VINA RESULT:    -8.013      0.000      0.000
REMARK INTER + INTRA:          -8.716
REMARK INTER:                  -8.716
REMARK INTRA:                   0.000
REMARK UNBOUND:                 0.000
REMARK  3 active torsions:
REMARK  status: ('A' for Active; 'I' for Inactive)
REMARK    1  A    between atoms: O_2  and  C_8 
REMARK    2  A    between atoms: O_3  and  C_11 
REMARK    3  A    between atoms: O_4  and  C_21 
ROOT
ATOM      1  O   UNK d   1      -3.145  -3.265 -13.219  0.00  0.00    -0.313 OA
ATOM      2  O   UNK d   1      -2.556  -1.038 -13.394  0.00  0.00    -0.260 OA
ATOM      3  C   UNK d   1      -1.806  -4.840 -12.011  0.00  0.00     0.032 C 
ATOM      4  C   UNK d   1      -3.262   0.697  -7.985  0.00  0.00     0.067 C 
ATOM      5  C   UNK d   1      -4.183  -0.534  -7.986  0.00  0.00     0.124 C 
ATOM      6  C   UNK d   1      -0.442  -5.418 -11.610  0.00  0.00     0.006 C 
ATOM      7  C   UNK d   1      -1.773  -3.685 -13.019  0.00  0.00     0.128 C 
ATOM      8  C   UNK d   1      -1.805   0.359  -7.626  0.00  0.00     0.143 C 
ATOM      9  C   UNK d   1       0.562  -4.412 -11.034  0.00  0.00     0.027 C 
ATOM     10  C   UNK d   1      -5.557  -0.290  -8.625  0.00  0.00     0.059 C 
ATOM     11  C   UNK d   1      -1.203  -4.093 -14.372  0.00  0.00     0.040 C 
ATOM     12  C   UNK d   1      -1.121  -0.376  -8.745  0.00  0.00     0.004 C 
ATOM     13  C   UNK d   1       0.037  -3.686  -9.828  0.00  0.00    -0.027 C 
ATOM     14  C   UNK d   1      -6.313   0.891  -8.075  0.00  0.00    -0.024 C 
ATOM     15  C   UNK d   1      -0.763  -1.667  -8.684  0.00  0.00    -0.002 C 
ATOM     16  C   UNK d   1      -0.185  -2.364  -9.809  0.00  0.00    -0.004 C 
ATOM     17  C   UNK d   1      -6.603   2.043  -8.702  0.00  0.00    -0.004 C 
ATOM     18  C   UNK d   1      -6.280   3.997 -12.044  0.00  0.00     0.144 C 
ATOM     19  C   UNK d   1      -3.383  -1.935 -13.396  0.00  0.00     0.283 C 
ATOM     20  C   UNK d   1      -5.304   3.170 -12.904  0.00  0.00     0.062 C 
ATOM     21  C   UNK d   1      -6.180   2.424 -10.032  0.00  0.00    -0.002 C 
ATOM     22  C   UNK d   1      -6.655   3.504 -10.670  0.00  0.00     0.005 C 
ATOM     23  C   UNK d   1      -4.840  -1.773 -13.618  0.00  0.00     0.082 C 
ATOM     24  C   UNK d   1      -5.799   1.801 -13.292  0.00  0.00    -0.024 C 
ATOM     25  C   UNK d   1      -5.527  -0.623 -13.557  0.00  0.00     0.006 C 
ATOM     26  C   UNK d   1      -5.045   0.693 -13.201  0.00  0.00    -0.004 C 
ENDROOT
BRANCH   5  27
ATOM     27  O   UNK d   1      -4.392  -0.985  -6.648  0.00  0.00    -0.395 OA
ATOM     28  H   UNK d   1      -5.314  -0.795  -6.404  0.00  0.00     0.210 HD
ENDBRANCH   5  27
BRANCH   8  29
ATOM     29  O   UNK d   1      -1.087   1.578  -7.425  0.00  0.00    -0.392 OA
ATOM     30  H   UNK d   1      -1.661   2.175  -6.915  0.00  0.00     0.210 HD
ENDBRANCH   8  29
BRANCH  18  31
ATOM     31  O   UNK d   1      -7.473   4.211 -12.804  0.00  0.00    -0.391 OA
ATOM     32  H   UNK d   1      -7.514   3.538 -13.505  0.00  0.00     0.210 HD
ENDBRANCH  18  31
TORSDOF 3
ENDMDL
MODEL 2
REMARK VINA RESULT:    -7.941      1.606      1.745
REMARK INTER + INTRA:          -8.638
REMARK INTER:                  -8.638
REMARK INTRA:                   0.000
REMARK UNBOUND:                 0.000
REMARK  3 active torsions:
REMARK  status: ('A' for Active; 'I' for Inactive)
REMARK    1  A    between atoms: O_2  and  C_8 
REMARK    2  A    between atoms: O_3  and  C_11 
REMARK    3  A    between atoms: O_4  and  C_21 
ROOT
ATOM      1  O   UNK d   1      -2.207  -2.463 -14.249  0.00  0.00    -0.313 OA
ATOM      2  O   UNK d   1      -1.077  -0.504 -13.780  0.00  0.00    -0.260 OA
ATOM      3  C   UNK d   1      -1.676  -4.526 -13.153  0.00  0.00     0.032 C 
ATOM      4  C   UNK d   1      -2.832   0.505  -8.425  0.00  0.00     0.067 C 
ATOM      5  C   UNK d   1      -3.982  -0.390  -8.913  0.00  0.00     0.124 C 
ATOM      6  C   UNK d   1      -0.658  -5.529 -12.592  0.00  0.00     0.006 C 
ATOM      7  C   UNK d   1      -1.087  -3.288 -13.841  0.00  0.00     0.128 C 
ATOM      8  C   UNK d   1      -1.658  -0.291  -7.830  0.00  0.00     0.143 C 
ATOM      9  C   UNK d   1       0.354  -4.957 -11.592  0.00  0.00     0.027 C 
ATOM     10  C   UNK d   1      -5.023   0.337  -9.775  0.00  0.00     0.059 C 
ATOM     11  C   UNK d   1      -0.277  -3.630 -15.085  0.00  0.00     0.040 C 
ATOM     12  C   UNK d   1      -0.886  -1.011  -8.900  0.00  0.00     0.004 C 
ATOM     13  C   UNK d   1      -0.298  -4.306 -10.406  0.00  0.00    -0.027 C 
ATOM     14  C   UNK d   1      -5.597   1.586  -9.162  0.00  0.00    -0.024 C 
ATOM     15  C   UNK d   1      -0.878  -2.343  -9.050  0.00  0.00    -0.002 C 
ATOM     16  C   UNK d   1      -0.193  -2.995 -10.142  0.00  0.00    -0.004 C 
ATOM     17  C   UNK d   1      -5.416   2.855  -9.563  0.00  0.00    -0.004 C 
ATOM     18  C   UNK d   1      -3.713   5.123 -12.218  0.00  0.00     0.144 C 
ATOM     19  C   UNK d   1      -2.060  -1.111 -14.171  0.00  0.00     0.283 C 
ATOM     20  C   UNK d   1      -2.762   4.192 -12.997  0.00  0.00     0.062 C 
ATOM     21  C   UNK d   1      -4.559   3.297 -10.642  0.00  0.00    -0.002 C 
ATOM     22  C   UNK d   1      -4.563   4.554 -11.112  0.00  0.00     0.005 C 
ATOM     23  C   UNK d   1      -3.314  -0.502 -14.676  0.00  0.00     0.082 C 
ATOM     24  C   UNK d   1      -3.442   3.101 -13.784  0.00  0.00    -0.024 C 
ATOM     25  C   UNK d   1      -3.695   0.774 -14.517  0.00  0.00     0.006 C 
ATOM     26  C   UNK d   1      -3.031   1.822 -13.775  0.00  0.00    -0.004 C 
ENDROOT
BRANCH   5  27
ATOM     27  O   UNK d   1      -4.659  -0.962  -7.793  0.00  0.00    -0.395 OA
ATOM     28  H   UNK d   1      -4.460  -0.423  -7.009  0.00  0.00     0.210 HD
ENDBRANCH   5  27
BRANCH   8  29
ATOM     29  O   UNK d   1      -0.755   0.622  -7.203  0.00  0.00    -0.392 OA
ATOM     30  H   UNK d   1      -0.815   1.466  -7.681  0.00  0.00     0.210 HD
ENDBRANCH   8  29
BRANCH  18  31
ATOM     31  O   UNK d   1      -4.558   5.788 -13.162  0.00  0.00    -0.391 OA
ATOM     32  H   UNK d   1      -5.478   5.702 -12.861  0.00  0.00     0.210 HD
ENDBRANCH  18  31
TORSDOF 3
ENDMDL
MODEL 3
REMARK VINA RESULT:    -7.373      2.643      7.108
REMARK INTER + INTRA:          -8.020
REMARK INTER:                  -8.020
REMARK INTRA:                   0.000
REMARK UNBOUND:                 0.000
REMARK  3 active torsions:
REMARK  status: ('A' for Active; 'I' for Inactive)
REMARK    1  A    between atoms: O_2  and  C_8 
REMARK    2  A    between atoms: O_3  and  C_11 
REMARK    3  A    between atoms: O_4  and  C_21 
ROOT
ATOM      1  O   UNK d   1      -2.945   0.716 -14.769  0.00  0.00    -0.313 OA
ATOM      2  O   UNK d   1      -4.324  -0.670 -13.539  0.00  0.00    -0.260 OA
ATOM      3  C   UNK d   1      -2.222   2.844 -13.942  0.00  0.00     0.032 C 
ATOM      4  C   UNK d   1      -0.815  -2.179  -9.275  0.00  0.00     0.067 C 
ATOM      5  C   UNK d   1       0.221  -1.787 -10.340  0.00  0.00     0.124 C 
ATOM      6  C   UNK d   1      -2.491   4.164 -13.205  0.00  0.00     0.006 C 
ATOM      7  C   UNK d   1      -3.426   1.907 -14.097  0.00  0.00     0.128 C 
ATOM      8  C   UNK d   1      -1.267  -0.992  -8.407  0.00  0.00     0.143 C 
ATOM      9  C   UNK d   1      -3.079   4.029 -11.795  0.00  0.00     0.027 C 
ATOM     10  C   UNK d   1       0.466  -2.864 -11.405  0.00  0.00     0.059 C 
ATOM     11  C   UNK d   1      -4.542   2.508 -14.943  0.00  0.00     0.040 C 
ATOM     12  C   UNK d   1      -2.149  -0.052  -9.181  0.00  0.00     0.004 C 
ATOM     13  C   UNK d   1      -2.223   3.199 -10.881  0.00  0.00    -0.027 C 
ATOM     14  C   UNK d   1       0.806  -4.227 -10.865  0.00  0.00    -0.024 C 
ATOM     15  C   UNK d   1      -1.783   1.184  -9.551  0.00  0.00    -0.002 C 
ATOM     16  C   UNK d   1      -2.624   2.028 -10.367  0.00  0.00    -0.004 C 
ATOM     17  C   UNK d   1       0.059  -5.343 -10.923  0.00  0.00    -0.004 C 
ATOM     18  C   UNK d   1      -3.285  -6.849 -12.203  0.00  0.00     0.144 C 
ATOM     19  C   UNK d   1      -3.478  -0.481 -14.398  0.00  0.00     0.283 C 
ATOM     20  C   UNK d   1      -4.117  -5.642 -12.681  0.00  0.00     0.062 C 
ATOM     21  C   UNK d   1      -1.279  -5.449 -11.462  0.00  0.00    -0.002 C 
ATOM     22  C   UNK d   1      -1.898  -6.622 -11.660  0.00  0.00     0.005 C 
ATOM     23  C   UNK d   1      -2.858  -1.523 -15.251  0.00  0.00     0.082 C 
ATOM     24  C   UNK d   1      -3.541  -4.898 -13.858  0.00  0.00    -0.024 C 
ATOM     25  C   UNK d   1      -2.890  -2.846 -15.035  0.00  0.00     0.006 C 
ATOM     26  C   UNK d   1      -3.459  -3.558 -13.912  0.00  0.00    -0.004 C 
ENDROOT
BRANCH   5  27
ATOM     27  O   UNK d   1       1.471  -1.493  -9.714  0.00  0.00    -0.395 OA
ATOM     28  H   UNK d   1       1.875  -0.741 -10.180  0.00  0.00     0.210 HD
ENDBRANCH   5  27
BRANCH   8  29
ATOM     29  O   UNK d   1      -2.041  -1.491  -7.314  0.00  0.00    -0.392 OA
ATOM     30  H   UNK d   1      -1.756  -1.018  -6.514  0.00  0.00     0.210 HD
ENDBRANCH   8  29
BRANCH  18  31
ATOM     31  O   UNK d   1      -3.219  -7.797 -13.272  0.00  0.00    -0.391 OA
ATOM     32  H   UNK d   1      -4.099  -7.858 -13.681  0.00  0.00     0.210 HD
ENDBRANCH  18  31
TORSDOF 3
ENDMDL
MODEL 4
REMARK VINA RESULT:    -7.154      3.164      8.272
REMARK INTER + INTRA:          -7.781
REMARK INTER:                  -7.781
REMARK INTRA:                   0.000
REMARK UNBOUND:                 0.000
REMARK  3 active torsions:
REMARK  status: ('A' for Active; 'I' for Inactive)
REMARK    1  A    between atoms: O_2  and  C_8 
REMARK    2  A    between atoms: O_3  and  C_11 
REMARK    3  A    between atoms: O_4  and  C_21 
ROOT
ATOM      1  O   UNK d   1      -6.299  -2.659 -11.711  0.00  0.00    -0.313 OA
ATOM      2  O   UNK d   1      -5.412  -4.592 -10.810  0.00  0.00    -0.260 OA
ATOM      3  C   UNK d   1      -5.772  -0.493 -10.834  0.00  0.00     0.032 C 
ATOM      4  C   UNK d   1       0.098  -4.031 -12.255  0.00  0.00     0.067 C 
ATOM      5  C   UNK d   1      -0.543  -3.121 -13.314  0.00  0.00     0.124 C 
ATOM      6  C   UNK d   1      -5.522   0.457  -9.654  0.00  0.00     0.006 C 
ATOM      7  C   UNK d   1      -6.159  -1.931 -10.466  0.00  0.00     0.128 C 
ATOM      8  C   UNK d   1       0.426  -3.294 -10.945  0.00  0.00     0.143 C 
ATOM      9  C   UNK d   1      -4.457   0.000  -8.649  0.00  0.00     0.027 C 
ATOM     10  C   UNK d   1      -1.152  -3.875 -14.505  0.00  0.00     0.059 C 
ATOM     11  C   UNK d   1      -7.483  -2.016  -9.718  0.00  0.00     0.040 C 
ATOM     12  C   UNK d   1      -0.822  -2.969 -10.173  0.00  0.00     0.004 C 
ATOM     13  C   UNK d   1      -3.120  -0.249  -9.284  0.00  0.00    -0.027 C 
ATOM     14  C   UNK d   1      -0.225  -4.845 -15.185  0.00  0.00    -0.024 C 
ATOM     15  C   UNK d   1      -1.297  -1.726 -10.005  0.00  0.00    -0.002 C 
ATOM     16  C   UNK d   1      -2.545  -1.460  -9.329  0.00  0.00    -0.004 C 
ATOM     17  C   UNK d   1      -0.308  -6.186 -15.202  0.00  0.00    -0.004 C 
ATOM     18  C   UNK d   1      -2.394  -9.243 -14.020  0.00  0.00     0.144 C 
ATOM     19  C   UNK d   1      -5.897  -3.960 -11.734  0.00  0.00     0.283 C 
ATOM     20  C   UNK d   1      -3.420  -8.672 -13.021  0.00  0.00     0.062 C 
ATOM     21  C   UNK d   1      -1.281  -6.991 -14.497  0.00  0.00    -0.002 C 
ATOM     22  C   UNK d   1      -1.426  -8.310 -14.700  0.00  0.00     0.005 C 
ATOM     23  C   UNK d   1      -6.180  -4.484 -13.092  0.00  0.00     0.082 C 
ATOM     24  C   UNK d   1      -4.421  -7.714 -13.614  0.00  0.00    -0.024 C 
ATOM     25  C   UNK d   1      -5.694  -5.616 -13.620  0.00  0.00     0.006 C 
ATOM     26  C   UNK d   1      -4.746  -6.543 -13.042  0.00  0.00    -0.004 C 
ENDROOT
BRANCH   5  27
ATOM     27  O   UNK d   1       0.430  -2.207 -13.822  0.00  0.00    -0.395 OA
ATOM     28  H   UNK d   1       0.874  -1.786 -13.067  0.00  0.00     0.210 HD
ENDBRANCH   5  27
BRANCH   8  29
ATOM     29  O   UNK d   1       1.218  -4.152 -10.122  0.00  0.00    -0.392 OA
ATOM     30  H   UNK d   1       1.066  -5.065 -10.419  0.00  0.00     0.210 HD
ENDBRANCH   8  29
BRANCH  18  31
ATOM     31  O   UNK d   1      -3.105  -9.984 -15.015  0.00  0.00    -0.391 OA
ATOM     32  H   UNK d   1      -2.581 -10.772 -15.242  0.00  0.00     0.210 HD
ENDBRANCH  18  31
TORSDOF 3
ENDMDL
MODEL 5
REMARK VINA RESULT:    -7.102      2.978      7.484
REMARK INTER + INTRA:          -7.725
REMARK INTER:                  -7.725
REMARK INTRA:                   0.000
REMARK UNBOUND:                 0.000
REMARK  3 active torsions:
REMARK  status: ('A' for Active; 'I' for Inactive)
REMARK    1  A    between atoms: O_2  and  C_8 
REMARK    2  A    between atoms: O_3  and  C_11 
REMARK    3  A    between atoms: O_4  and  C_21 
ROOT
ATOM      1  O   UNK d   1      -8.119  -2.230 -10.979  0.00  0.00    -0.313 OA
ATOM      2  O   UNK d   1      -6.787  -3.772  -9.891  0.00  0.00    -0.260 OA
ATOM      3  C   UNK d   1      -8.774  -0.169  -9.949  0.00  0.00     0.032 C 
ATOM      4  C   UNK d   1      -1.823  -0.932  -9.642  0.00  0.00     0.067 C 
ATOM      5  C   UNK d   1      -2.479  -0.207 -10.827  0.00  0.00     0.124 C 
ATOM      6  C   UNK d   1      -9.253   0.634  -8.731  0.00  0.00     0.006 C 
ATOM      7  C   UNK d   1      -8.620  -1.680  -9.735  0.00  0.00     0.128 C 
ATOM      8  C   UNK d   1      -2.181  -0.310  -8.281  0.00  0.00     0.143 C 
ATOM      9  C   UNK d   1      -8.399   0.494  -7.465  0.00  0.00     0.027 C 
ATOM     10  C   UNK d   1      -2.392  -0.969 -12.157  0.00  0.00     0.059 C 
ATOM     11  C   UNK d   1      -9.938  -2.372  -9.411  0.00  0.00     0.040 C 
ATOM     12  C   UNK d   1      -3.607  -0.602  -7.904  0.00  0.00     0.004 C 
ATOM     13  C   UNK d   1      -6.962   0.870  -7.684  0.00  0.00    -0.027 C 
ATOM     14  C   UNK d   1      -1.005  -1.403 -12.551  0.00  0.00    -0.024 C 
ATOM     15  C   UNK d   1      -4.575   0.326  -7.862  0.00  0.00    -0.002 C 
ATOM     16  C   UNK d   1      -5.952  -0.006  -7.579  0.00  0.00    -0.004 C 
ATOM     17  C   UNK d   1      -0.524  -2.655 -12.614  0.00  0.00    -0.004 C 
ATOM     18  C   UNK d   1      -1.404  -6.411 -12.150  0.00  0.00     0.144 C 
ATOM     19  C   UNK d   1      -7.228  -3.258 -10.905  0.00  0.00     0.283 C 
ATOM     20  C   UNK d   1      -2.796  -6.422 -11.488  0.00  0.00     0.062 C 
ATOM     21  C   UNK d   1      -1.229  -3.862 -12.240  0.00  0.00    -0.002 C 
ATOM     22  C   UNK d   1      -0.763  -5.093 -12.500  0.00  0.00     0.005 C 
ATOM     23  C   UNK d   1      -6.906  -3.661 -12.295  0.00  0.00     0.082 C 
ATOM     24  C   UNK d   1      -3.909  -5.856 -12.332  0.00  0.00    -0.024 C 
ATOM     25  C   UNK d   1      -5.879  -4.435 -12.677  0.00  0.00     0.006 C 
ATOM     26  C   UNK d   1      -4.822  -4.991 -11.861  0.00  0.00    -0.004 C 
ENDROOT
BRANCH   5  27
ATOM     27  O   UNK d   1      -1.871   1.072 -11.011  0.00  0.00    -0.395 OA
ATOM     28  H   UNK d   1      -1.842   1.261 -11.964  0.00  0.00     0.210 HD
ENDBRANCH   5  27
BRANCH   8  29
ATOM     29  O   UNK d   1      -1.353  -0.897  -7.276  0.00  0.00    -0.392 OA
ATOM     30  H   UNK d   1      -0.490  -0.451  -7.310  0.00  0.00     0.210 HD
ENDBRANCH   8  29
BRANCH  18  31
ATOM     31  O   UNK d   1      -1.462  -7.228 -13.323  0.00  0.00    -0.391 OA
ATOM     32  H   UNK d   1      -0.759  -7.897 -13.264  0.00  0.00     0.210 HD
ENDBRANCH  18  31
TORSDOF 3
ENDMDL
MODEL 6
REMARK VINA RESULT:    -7.054      3.358      7.518
REMARK INTER + INTRA:          -7.673
REMARK INTER:                  -7.673
REMARK INTRA:                   0.000
REMARK UNBOUND:                 0.000
REMARK  3 active torsions:
REMARK  status: ('A' for Active; 'I' for Inactive)
REMARK    1  A    between atoms: O_2  and  C_8 
REMARK    2  A    between atoms: O_3  and  C_11 
REMARK    3  A    between atoms: O_4  and  C_21 
ROOT
ATOM      1  O   UNK d   1      -6.884  -4.034 -13.665  0.00  0.00    -0.313 OA
ATOM      2  O   UNK d   1      -5.643  -2.096 -13.470  0.00  0.00    -0.260 OA
ATOM      3  C   UNK d   1      -7.017  -5.253 -15.722  0.00  0.00     0.032 C 
ATOM      4  C   UNK d   1      -0.327  -4.158 -13.979  0.00  0.00     0.067 C 
ATOM      5  C   UNK d   1      -1.058  -5.430 -13.520  0.00  0.00     0.124 C 
ATOM      6  C   UNK d   1      -7.144  -5.304 -17.251  0.00  0.00     0.006 C 
ATOM      7  C   UNK d   1      -7.068  -3.856 -15.091  0.00  0.00     0.128 C 
ATOM      8  C   UNK d   1      -0.340  -3.973 -15.506  0.00  0.00     0.143 C 
ATOM      9  C   UNK d   1      -6.115  -4.474 -18.030  0.00  0.00     0.027 C 
ATOM     10  C   UNK d   1      -1.324  -5.491 -12.010  0.00  0.00     0.059 C 
ATOM     11  C   UNK d   1      -8.402  -3.154 -15.311  0.00  0.00     0.040 C 
ATOM     12  C   UNK d   1      -1.706  -3.585 -15.999  0.00  0.00     0.004 C 
ATOM     13  C   UNK d   1      -4.697  -4.850 -17.709  0.00  0.00    -0.027 C 
ATOM     14  C   UNK d   1      -0.114  -5.277 -11.141  0.00  0.00    -0.024 C 
ATOM     15  C   UNK d   1      -2.494  -4.386 -16.731  0.00  0.00    -0.002 C 
ATOM     16  C   UNK d   1      -3.835  -4.012 -17.115  0.00  0.00    -0.004 C 
ATOM     17  C   UNK d   1       0.146  -4.232 -10.337  0.00  0.00    -0.004 C 
ATOM     18  C   UNK d   1      -1.220  -0.848  -9.007  0.00  0.00     0.144 C 
ATOM     19  C   UNK d   1      -6.167  -3.089 -12.995  0.00  0.00     0.283 C 
ATOM     20  C   UNK d   1      -2.459  -0.542  -9.871  0.00  0.00     0.062 C 
ATOM     21  C   UNK d   1      -0.664  -3.042 -10.193  0.00  0.00    -0.002 C 
ATOM     22  C   UNK d   1      -0.450  -2.121  -9.242  0.00  0.00     0.005 C 
ATOM     23  C   UNK d   1      -6.160  -3.476 -11.563  0.00  0.00     0.082 C 
ATOM     24  C   UNK d   1      -3.599  -1.517  -9.719  0.00  0.00    -0.024 C 
ATOM     25  C   UNK d   1      -5.350  -2.983 -10.615  0.00  0.00     0.006 C 
ATOM     26  C   UNK d   1      -4.268  -2.034 -10.762  0.00  0.00    -0.004 C 
ENDROOT
BRANCH   5  27
ATOM     27  O   UNK d   1      -0.297  -6.583 -13.880  0.00  0.00    -0.395 OA
ATOM     28  H   UNK d   1       0.339  -6.325 -14.569  0.00  0.00     0.210 HD
ENDBRANCH   5  27
BRANCH   8  29
ATOM     29  O   UNK d   1       0.548  -2.907 -15.847  0.00  0.00    -0.392 OA
ATOM     30  H   UNK d   1       0.603  -2.315 -15.078  0.00  0.00     0.210 HD
ENDBRANCH   8  29
BRANCH  18  31
ATOM     31  O   UNK d   1      -1.609  -0.785  -7.631  0.00  0.00    -0.391 OA
ATOM     32  H   UNK d   1      -2.575  -0.680  -7.592  0.00  0.00     0.210 HD
ENDBRANCH  18  31
TORSDOF 3
ENDMDL
MODEL 7
REMARK VINA RESULT:    -6.936      2.854      6.178
REMARK INTER + INTRA:          -7.544
REMARK INTER:                  -7.544
REMARK INTRA:                   0.000
REMARK UNBOUND:                 0.000
REMARK  3 active torsions:
REMARK  status: ('A' for Active; 'I' for Inactive)
REMARK    1  A    between atoms: O_2  and  C_8 
REMARK    2  A    between atoms: O_3  and  C_11 
REMARK    3  A    between atoms: O_4  and  C_21 
ROOT
ATOM      1  O   UNK d   1      -1.040  -5.319 -13.838  0.00  0.00    -0.313 OA
ATOM      2  O   UNK d   1      -1.619  -5.320 -11.602  0.00  0.00    -0.260 OA
ATOM      3  C   UNK d   1      -2.443  -6.302 -15.511  0.00  0.00     0.032 C 
ATOM      4  C   UNK d   1      -6.102  -1.760 -11.641  0.00  0.00     0.067 C 
ATOM      5  C   UNK d   1      -5.392  -1.301 -12.925  0.00  0.00     0.124 C 
ATOM      6  C   UNK d   1      -3.373  -7.421 -16.000  0.00  0.00     0.006 C 
ATOM      7  C   UNK d   1      -1.836  -6.497 -14.117  0.00  0.00     0.128 C 
ATOM      8  C   UNK d   1      -7.090  -2.915 -11.878  0.00  0.00     0.143 C 
ATOM      9  C   UNK d   1      -4.562  -7.741 -15.086  0.00  0.00     0.027 C 
ATOM     10  C   UNK d   1      -4.196  -0.371 -12.685  0.00  0.00     0.059 C 
ATOM     11  C   UNK d   1      -0.922  -7.713 -14.031  0.00  0.00     0.040 C 
ATOM     12  C   UNK d   1      -6.368  -4.204 -12.156  0.00  0.00     0.004 C 
ATOM     13  C   UNK d   1      -5.436  -6.549 -14.822  0.00  0.00    -0.027 C 
ATOM     14  C   UNK d   1      -4.488   0.831 -11.827  0.00  0.00    -0.024 C 
ATOM     15  C   UNK d   1      -6.361  -4.815 -13.350  0.00  0.00    -0.002 C 
ATOM     16  C   UNK d   1      -5.587  -6.008 -13.604  0.00  0.00    -0.004 C 
ATOM     17  C   UNK d   1      -4.032   1.086 -10.589  0.00  0.00    -0.004 C 
ATOM     18  C   UNK d   1      -1.775  -0.231  -7.714  0.00  0.00     0.144 C 
ATOM     19  C   UNK d   1      -1.021  -4.854 -12.558  0.00  0.00     0.283 C 
ATOM     20  C   UNK d   1      -1.404  -1.671  -8.117  0.00  0.00     0.062 C 
ATOM     21  C   UNK d   1      -3.211   0.209  -9.782  0.00  0.00    -0.002 C 
ATOM     22  C   UNK d   1      -2.637   0.596  -8.633  0.00  0.00     0.005 C 
ATOM     23  C   UNK d   1      -0.114  -3.681 -12.528  0.00  0.00     0.082 C 
ATOM     24  C   UNK d   1      -0.566  -1.788  -9.364  0.00  0.00    -0.024 C 
ATOM     25  C   UNK d   1      -0.027  -2.772 -11.546  0.00  0.00     0.006 C 
ATOM     26  C   UNK d   1      -0.822  -2.673 -10.342  0.00  0.00    -0.004 C 
ENDROOT
BRANCH   5  27
ATOM     27  O   UNK d   1      -6.318  -0.620 -13.773  0.00  0.00    -0.395 OA
ATOM     28  H   UNK d   1      -6.047   0.312 -13.832  0.00  0.00     0.210 HD
ENDBRANCH   5  27
BRANCH   8  29
ATOM     29  O   UNK d   1      -7.858  -3.113 -10.689  0.00  0.00    -0.392 OA
ATOM     30  H   UNK d   1      -7.689  -4.019 -10.380  0.00  0.00     0.210 HD
ENDBRANCH   8  29
BRANCH  18  31
ATOM     31  O   UNK d   1      -0.565   0.483  -7.442  0.00  0.00    -0.391 OA
ATOM     32  H   UNK d   1      -0.259   0.891  -8.269  0.00  0.00     0.210 HD
ENDBRANCH  18  31
TORSDOF 3
ENDMDL
MODEL 8
REMARK VINA RESULT:    -6.766      3.059      7.153
REMARK INTER + INTRA:          -7.359
REMARK INTER:                  -7.359
REMARK INTRA:                   0.000
REMARK UNBOUND:                 0.000
REMARK  3 active torsions:
REMARK  status: ('A' for Active; 'I' for Inactive)
REMARK    1  A    between atoms: O_2  and  C_8 
REMARK    2  A    between atoms: O_3  and  C_11 
REMARK    3  A    between atoms: O_4  and  C_21 
ROOT
ATOM      1  O   UNK d   1      -4.631  -2.199 -16.291  0.00  0.00    -0.313 OA
ATOM      2  O   UNK d   1      -4.033  -4.061 -15.062  0.00  0.00    -0.260 OA
ATOM      3  C   UNK d   1      -6.905  -1.466 -16.459  0.00  0.00     0.032 C 
ATOM      4  C   UNK d   1      -5.092  -2.232  -9.741  0.00  0.00     0.067 C 
ATOM      5  C   UNK d   1      -4.913  -0.881 -10.451  0.00  0.00     0.124 C 
ATOM      6  C   UNK d   1      -8.404  -1.756 -16.619  0.00  0.00     0.006 C 
ATOM      7  C   UNK d   1      -5.978  -2.687 -16.507  0.00  0.00     0.128 C 
ATOM      8  C   UNK d   1      -6.539  -2.752  -9.789  0.00  0.00     0.143 C 
ATOM      9  C   UNK d   1      -8.998  -2.751 -15.614  0.00  0.00     0.027 C 
ATOM     10  C   UNK d   1      -3.450  -0.481 -10.684  0.00  0.00     0.059 C 
ATOM     11  C   UNK d   1      -6.009  -3.404 -17.851  0.00  0.00     0.040 C 
ATOM     12  C   UNK d   1      -6.906  -3.223 -11.169  0.00  0.00     0.004 C 
ATOM     13  C   UNK d   1      -8.797  -2.332 -14.186  0.00  0.00    -0.027 C 
ATOM     14  C   UNK d   1      -2.579  -0.512  -9.457  0.00  0.00    -0.024 C 
ATOM     15  C   UNK d   1      -7.783  -2.595 -11.966  0.00  0.00    -0.002 C 
ATOM     16  C   UNK d   1      -8.048  -3.028 -13.318  0.00  0.00    -0.004 C 
ATOM     17  C   UNK d   1      -1.568  -1.355  -9.189  0.00  0.00    -0.004 C 
ATOM     18  C   UNK d   1       0.510  -4.341 -10.553  0.00  0.00     0.144 C 
ATOM     19  C   UNK d   1      -3.781  -2.980 -15.568  0.00  0.00     0.283 C 
ATOM     20  C   UNK d   1      -0.241  -4.815 -11.813  0.00  0.00     0.062 C 
ATOM     21  C   UNK d   1      -1.147  -2.473 -10.005  0.00  0.00    -0.002 C 
ATOM     22  C   UNK d   1      -0.018  -3.161  -9.778  0.00  0.00     0.005 C 
ATOM     23  C   UNK d   1      -2.472  -2.284 -15.525  0.00  0.00     0.082 C 
ATOM     24  C   UNK d   1      -0.287  -3.816 -12.941  0.00  0.00    -0.024 C 
ATOM     25  C   UNK d   1      -1.453  -2.564 -14.699  0.00  0.00     0.006 C 
ATOM     26  C   UNK d   1      -1.406  -3.535 -13.629  0.00  0.00    -0.004 C 
ENDROOT
BRANCH   5  27
ATOM     27  O   UNK d   1      -5.537   0.154  -9.689  0.00  0.00    -0.395 OA
ATOM     28  H   UNK d   1      -6.422   0.312 -10.058  0.00  0.00     0.210 HD
ENDBRANCH   5  27
BRANCH   8  29
ATOM     29  O   UNK d   1      -6.651  -3.879  -8.918  0.00  0.00    -0.392 OA
ATOM     30  H   UNK d   1      -7.577  -4.174  -8.939  0.00  0.00     0.210 HD
ENDBRANCH   8  29
BRANCH  18  31
ATOM     31  O   UNK d   1       1.872  -4.091 -10.912  0.00  0.00    -0.391 OA
ATOM     32  H   UNK d   1       2.341  -3.768 -10.124  0.00  0.00     0.210 HD
ENDBRANCH  18  31
TORSDOF 3
ENDMDL
MODEL 9
REMARK VINA RESULT:    -6.697      2.297      5.773
REMARK INTER + INTRA:          -7.285
REMARK INTER:                  -7.285
REMARK INTRA:                   0.000
REMARK UNBOUND:                 0.000
REMARK  3 active torsions:
REMARK  status: ('A' for Active; 'I' for Inactive)
REMARK    1  A    between atoms: O_2  and  C_8 
REMARK    2  A    between atoms: O_3  and  C_11 
REMARK    3  A    between atoms: O_4  and  C_21 
ROOT
ATOM      1  O   UNK d   1      -0.486  -3.335 -12.627  0.00  0.00    -0.313 OA
ATOM      2  O   UNK d   1      -2.714  -3.386 -12.019  0.00  0.00    -0.260 OA
ATOM      3  C   UNK d   1       0.209  -3.490 -14.913  0.00  0.00     0.032 C 
ATOM      4  C   UNK d   1      -4.534   1.603 -14.157  0.00  0.00     0.067 C 
ATOM      5  C   UNK d   1      -3.032   1.906 -14.029  0.00  0.00     0.124 C 
ATOM      6  C   UNK d   1       0.088  -4.095 -16.319  0.00  0.00     0.006 C 
ATOM      7  C   UNK d   1      -0.730  -4.072 -13.850  0.00  0.00     0.128 C 
ATOM      8  C   UNK d   1      -4.906   0.956 -15.502  0.00  0.00     0.143 C 
ATOM      9  C   UNK d   1      -1.311  -4.041 -16.946  0.00  0.00     0.027 C 
ATOM     10  C   UNK d   1      -2.583   2.266 -12.607  0.00  0.00     0.059 C 
ATOM     11  C   UNK d   1      -0.469  -5.547 -13.571  0.00  0.00     0.040 C 
ATOM     12  C   UNK d   1      -4.427  -0.467 -15.576  0.00  0.00     0.004 C 
ATOM     13  C   UNK d   1      -1.859  -2.646 -17.036  0.00  0.00    -0.027 C 
ATOM     14  C   UNK d   1      -3.366   3.373 -11.954  0.00  0.00    -0.024 C 
ATOM     15  C   UNK d   1      -3.437  -0.884 -16.380  0.00  0.00    -0.002 C 
ATOM     16  C   UNK d   1      -2.946  -2.242 -16.362  0.00  0.00    -0.004 C 
ATOM     17  C   UNK d   1      -4.202   3.280 -10.906  0.00  0.00    -0.004 C 
ATOM     18  C   UNK d   1      -5.732   0.855  -8.285  0.00  0.00     0.144 C 
ATOM     19  C   UNK d   1      -1.551  -3.073 -11.820  0.00  0.00     0.283 C 
ATOM     20  C   UNK d   1      -5.328  -0.557  -8.753  0.00  0.00     0.062 C 
ATOM     21  C   UNK d   1      -4.585   2.063 -10.223  0.00  0.00    -0.002 C 
ATOM     22  C   UNK d   1      -5.275   2.055  -9.073  0.00  0.00     0.005 C 
ATOM     23  C   UNK d   1      -1.037  -2.354 -10.630  0.00  0.00     0.082 C 
ATOM     24  C   UNK d   1      -3.846  -0.835  -8.734  0.00  0.00    -0.024 C 
ATOM     25  C   UNK d   1      -1.771  -1.676  -9.736  0.00  0.00     0.006 C 
ATOM     26  C   UNK d   1      -3.196  -1.426  -9.749  0.00  0.00    -0.004 C 
ENDROOT
BRANCH   5  27
ATOM     27  O   UNK d   1      -2.681   2.989 -14.891  0.00  0.00    -0.395 OA
ATOM     28  H   UNK d   1      -1.924   3.457 -14.498  0.00  0.00     0.210 HD
ENDBRANCH   5  27
BRANCH   8  29
ATOM     29  O   UNK d   1      -6.329   0.926 -15.619  0.00  0.00    -0.392 OA
ATOM     30  H   UNK d   1      -6.553   1.179 -16.531  0.00  0.00     0.210 HD
ENDBRANCH   8  29
BRANCH  18  31
ATOM     31  O   UNK d   1      -5.323   1.007  -6.923  0.00  0.00    -0.391 OA
ATOM     32  H   UNK d   1      -4.596   0.385  -6.751  0.00  0.00     0.210 HD
ENDBRANCH  18  31
TORSDOF 3
ENDMDL
