MODEL 1
REMARK VINA RESULT:    -6.682      0.000      0.000
REMARK INTER + INTRA:          -7.268
REMARK INTER:                  -7.268
REMARK INTRA:                   0.000
REMARK UNBOUND:                 0.000
REMARK  3 active torsions:
REMARK  status: ('A' for Active; 'I' for Inactive)
REMARK    1  A    between atoms: O_2  and  C_8 
REMARK    2  A    between atoms: O_3  and  C_11 
REMARK    3  A    between atoms: O_4  and  C_21 
ROOT
ATOM      1  O   UNK d   1     -19.561   6.025  10.879  0.00  0.00    -0.313 OA
ATOM      2  O   UNK d   1     -19.462   7.192  12.870  0.00  0.00    -0.260 OA
ATOM      3  C   UNK d   1     -20.418   7.012   8.872  0.00  0.00     0.032 C 
ATOM      4  C   UNK d   1     -15.446  11.083  11.647  0.00  0.00     0.067 C 
ATOM      5  C   UNK d   1     -15.088  10.004  10.613  0.00  0.00     0.124 C 
ATOM      6  C   UNK d   1     -21.440   7.887   8.133  0.00  0.00     0.006 C 
ATOM      7  C   UNK d   1     -20.653   6.835  10.378  0.00  0.00     0.128 C 
ATOM      8  C   UNK d   1     -16.493  12.086  11.134  0.00  0.00     0.143 C 
ATOM      9  C   UNK d   1     -21.616   9.308   8.681  0.00  0.00     0.027 C 
ATOM     10  C   UNK d   1     -14.286   8.827  11.185  0.00  0.00     0.059 C 
ATOM     11  C   UNK d   1     -21.958   6.116  10.695  0.00  0.00     0.040 C 
ATOM     12  C   UNK d   1     -17.857  11.459  11.047  0.00  0.00     0.004 C 
ATOM     13  C   UNK d   1     -20.332  10.088   8.710  0.00  0.00    -0.027 C 
ATOM     14  C   UNK d   1     -13.045   9.212  11.945  0.00  0.00    -0.024 C 
ATOM     15  C   UNK d   1     -18.485  11.190   9.894  0.00  0.00    -0.002 C 
ATOM     16  C   UNK d   1     -19.758  10.508   9.847  0.00  0.00    -0.004 C 
ATOM     17  C   UNK d   1     -12.819   9.089  13.264  0.00  0.00    -0.004 C 
ATOM     18  C   UNK d   1     -14.319   7.862  16.631  0.00  0.00     0.144 C 
ATOM     19  C   UNK d   1     -19.079   6.308  12.121  0.00  0.00     0.283 C 
ATOM     20  C   UNK d   1     -15.798   7.552  16.326  0.00  0.00     0.062 C 
ATOM     21  C   UNK d   1     -13.764   8.620  14.253  0.00  0.00    -0.002 C 
ATOM     22  C   UNK d   1     -13.421   8.345  15.521  0.00  0.00     0.005 C 
ATOM     23  C   UNK d   1     -18.009   5.324  12.413  0.00  0.00     0.082 C 
ATOM     24  C   UNK d   1     -16.025   6.421  15.356  0.00  0.00    -0.024 C 
ATOM     25  C   UNK d   1     -17.098   5.413  13.393  0.00  0.00     0.006 C 
ATOM     26  C   UNK d   1     -16.894   6.492  14.334  0.00  0.00    -0.004 C 
ENDROOT
BRANCH   5  27
ATOM     27  O   UNK d   1     -14.326  10.583   9.552  0.00  0.00    -0.395 OA
ATOM     28  H   UNK d   1     -14.195   9.905   8.867  0.00  0.00     0.210 HD
ENDBRANCH   5  27
BRANCH   8  29
ATOM     29  O   UNK d   1     -16.587  13.167  12.063  0.00  0.00    -0.392 OA
ATOM     30  H   UNK d   1     -17.088  13.881  11.632  0.00  0.00     0.210 HD
ENDBRANCH   8  29
BRANCH  18  31
ATOM     31  O   UNK d   1     -13.735   6.704  17.234  0.00  0.00    -0.391 OA
ATOM     32  H   UNK d   1     -13.418   6.118  16.525  0.00  0.00     0.210 HD
ENDBRANCH  18  31
TORSDOF 3
ENDMDL
MODEL 2
REMARK VINA RESULT:    -6.480      2.794      3.996
REMARK INTER + INTRA:          -7.048
REMARK INTER:                  -7.048
REMARK INTRA:                   0.000
REMARK UNBOUND:                 0.000
REMARK  3 active torsions:
REMARK  status: ('A' for Active; 'I' for Inactive)
REMARK    1  A    between atoms: O_2  and  C_8 
REMARK    2  A    between atoms: O_3  and  C_11 
REMARK    3  A    between atoms: O_4  and  C_21 
ROOT
ATOM      1  O   UNK d   1     -20.262  10.547  11.281  0.00  0.00    -0.313 OA
ATOM      2  O   UNK d   1     -18.839  10.410  13.095  0.00  0.00    -0.260 OA
ATOM      3  C   UNK d   1     -21.039  12.648  10.434  0.00  0.00     0.032 C 
ATOM      4  C   UNK d   1     -14.054  12.646  10.887  0.00  0.00     0.067 C 
ATOM      5  C   UNK d   1     -14.754  12.200   9.593  0.00  0.00     0.124 C 
ATOM      6  C   UNK d   1     -21.563  14.075  10.648  0.00  0.00     0.006 C 
ATOM      7  C   UNK d   1     -20.793  11.827  11.705  0.00  0.00     0.128 C 
ATOM      8  C   UNK d   1     -14.446  14.066  11.326  0.00  0.00     0.143 C 
ATOM      9  C   UNK d   1     -20.700  14.971  11.544  0.00  0.00     0.027 C 
ATOM     10  C   UNK d   1     -14.624  10.701   9.292  0.00  0.00     0.059 C 
ATOM     11  C   UNK d   1     -22.067  11.568  12.500  0.00  0.00     0.040 C 
ATOM     12  C   UNK d   1     -15.851  14.106  11.859  0.00  0.00     0.004 C 
ATOM     13  C   UNK d   1     -19.288  15.108  11.051  0.00  0.00    -0.027 C 
ATOM     14  C   UNK d   1     -13.214  10.172   9.296  0.00  0.00    -0.024 C 
ATOM     15  C   UNK d   1     -16.873  14.708  11.233  0.00  0.00    -0.002 C 
ATOM     16  C   UNK d   1     -18.227  14.653  11.733  0.00  0.00    -0.004 C 
ATOM     17  C   UNK d   1     -12.659   9.323  10.176  0.00  0.00    -0.004 C 
ATOM     18  C   UNK d   1     -13.311   7.182  13.352  0.00  0.00     0.144 C 
ATOM     19  C   UNK d   1     -19.311   9.964  12.062  0.00  0.00     0.283 C 
ATOM     20  C   UNK d   1     -14.698   7.622  13.860  0.00  0.00     0.062 C 
ATOM     21  C   UNK d   1     -13.289   8.789  11.364  0.00  0.00    -0.002 C 
ATOM     22  C   UNK d   1     -12.750   7.805  12.100  0.00  0.00     0.005 C 
ATOM     23  C   UNK d   1     -18.968   8.662  11.441  0.00  0.00     0.082 C 
ATOM     24  C   UNK d   1     -15.844   7.313  12.931  0.00  0.00    -0.024 C 
ATOM     25  C   UNK d   1     -17.897   7.907  11.725  0.00  0.00     0.006 C 
ATOM     26  C   UNK d   1     -16.807   8.199  12.631  0.00  0.00    -0.004 C 
ENDROOT
BRANCH   5  27
ATOM     27  O   UNK d   1     -14.224  12.922   8.481  0.00  0.00    -0.395 OA
ATOM     28  H   UNK d   1     -14.935  13.038   7.827  0.00  0.00     0.210 HD
ENDBRANCH   5  27
BRANCH   8  29
ATOM     29  O   UNK d   1     -13.583  14.473  12.389  0.00  0.00    -0.392 OA
ATOM     30  H   UNK d   1     -12.676  14.223  12.142  0.00  0.00     0.210 HD
ENDBRANCH   8  29
BRANCH  18  31
ATOM     31  O   UNK d   1     -13.321   5.759  13.202  0.00  0.00    -0.391 OA
ATOM     32  H   UNK d   1     -12.955   5.542  12.327  0.00  0.00     0.210 HD
ENDBRANCH  18  31
TORSDOF 3
ENDMDL
MODEL 3
REMARK VINA RESULT:    -6.398      3.687      7.401
REMARK INTER + INTRA:          -6.960
REMARK INTER:                  -6.960
REMARK INTRA:                   0.000
REMARK UNBOUND:                 0.000
REMARK  3 active torsions:
REMARK  status: ('A' for Active; 'I' for Inactive)
REMARK    1  A    between atoms: O_2  and  C_8 
REMARK    2  A    between atoms: O_3  and  C_11 
REMARK    3  A    between atoms: O_4  and  C_21 
ROOT
ATOM      1  O   UNK d   1     -15.192  11.122   9.901  0.00  0.00    -0.313 OA
ATOM      2  O   UNK d   1     -14.441  12.421  11.658  0.00  0.00    -0.260 OA
ATOM      3  C   UNK d   1     -13.956   9.234   9.100  0.00  0.00     0.032 C 
ATOM      4  C   UNK d   1     -14.933   8.739  16.014  0.00  0.00     0.067 C 
ATOM      5  C   UNK d   1     -15.943   8.121  15.034  0.00  0.00     0.124 C 
ATOM      6  C   UNK d   1     -12.632   8.554   8.722  0.00  0.00     0.006 C 
ATOM      7  C   UNK d   1     -13.852  10.696   9.551  0.00  0.00     0.128 C 
ATOM      8  C   UNK d   1     -13.500   8.219  15.811  0.00  0.00     0.143 C 
ATOM      9  C   UNK d   1     -11.548   8.564   9.807  0.00  0.00     0.027 C 
ATOM     10  C   UNK d   1     -17.305   8.828  15.005  0.00  0.00     0.059 C 
ATOM     11  C   UNK d   1     -13.335  11.620   8.455  0.00  0.00     0.040 C 
ATOM     12  C   UNK d   1     -12.891   8.770  14.552  0.00  0.00     0.004 C 
ATOM     13  C   UNK d   1     -11.999   7.930  11.092  0.00  0.00    -0.027 C 
ATOM     14  C   UNK d   1     -17.962   8.997  16.349  0.00  0.00    -0.024 C 
ATOM     15  C   UNK d   1     -12.628   8.033  13.462  0.00  0.00    -0.002 C 
ATOM     16  C   UNK d   1     -12.121   8.612  12.240  0.00  0.00    -0.004 C 
ATOM     17  C   UNK d   1     -18.176  10.142  17.019  0.00  0.00    -0.004 C 
ATOM     18  C   UNK d   1     -17.759  14.002  16.905  0.00  0.00     0.144 C 
ATOM     19  C   UNK d   1     -15.333  11.974  10.954  0.00  0.00     0.283 C 
ATOM     20  C   UNK d   1     -16.861  14.277  15.683  0.00  0.00     0.062 C 
ATOM     21  C   UNK d   1     -17.746  11.463  16.616  0.00  0.00    -0.002 C 
ATOM     22  C   UNK d   1     -18.148  12.584  17.232  0.00  0.00     0.005 C 
ATOM     23  C   UNK d   1     -16.777  12.286  11.080  0.00  0.00     0.082 C 
ATOM     24  C   UNK d   1     -17.462  13.904  14.352  0.00  0.00    -0.024 C 
ATOM     25  C   UNK d   1     -17.375  12.854  12.137  0.00  0.00     0.006 C 
ATOM     26  C   UNK d   1     -16.791  13.227  13.406  0.00  0.00    -0.004 C 
ENDROOT
BRANCH   5  27
ATOM     27  O   UNK d   1     -16.165   6.750  15.367  0.00  0.00    -0.395 OA
ATOM     28  H   UNK d   1     -15.920   6.620  16.299  0.00  0.00     0.210 HD
ENDBRANCH   5  27
BRANCH   8  29
ATOM     29  O   UNK d   1     -12.691   8.667  16.899  0.00  0.00    -0.392 OA
ATOM     30  H   UNK d   1     -13.190   9.354  17.372  0.00  0.00     0.210 HD
ENDBRANCH   8  29
BRANCH  18  31
ATOM     31  O   UNK d   1     -18.944  14.793  16.774  0.00  0.00    -0.391 OA
ATOM     32  H   UNK d   1     -18.785  15.654  17.196  0.00  0.00     0.210 HD
ENDBRANCH  18  31
TORSDOF 3
ENDMDL
MODEL 4
REMARK VINA RESULT:    -6.259      2.529      7.116
REMARK INTER + INTRA:          -6.808
REMARK INTER:                  -6.808
REMARK INTRA:                   0.000
REMARK UNBOUND:                 0.000
REMARK  3 active torsions:
REMARK  status: ('A' for Active; 'I' for Inactive)
REMARK    1  A    between atoms: O_2  and  C_8 
REMARK    2  A    between atoms: O_3  and  C_11 
REMARK    3  A    between atoms: O_4  and  C_21 
ROOT
ATOM      1  O   UNK d   1     -17.503   7.305  13.388  0.00  0.00    -0.313 OA
ATOM      2  O   UNK d   1     -18.177   7.739  11.222  0.00  0.00    -0.260 OA
ATOM      3  C   UNK d   1     -15.198   7.362  14.034  0.00  0.00     0.032 C 
ATOM      4  C   UNK d   1     -16.960  13.317  10.805  0.00  0.00     0.067 C 
ATOM      5  C   UNK d   1     -17.080  13.190  12.332  0.00  0.00     0.124 C 
ATOM      6  C   UNK d   1     -13.717   7.056  13.768  0.00  0.00     0.006 C 
ATOM      7  C   UNK d   1     -16.185   6.876  12.966  0.00  0.00     0.128 C 
ATOM      8  C   UNK d   1     -15.542  13.028  10.285  0.00  0.00     0.143 C 
ATOM      9  C   UNK d   1     -13.160   7.581  12.438  0.00  0.00     0.027 C 
ATOM     10  C   UNK d   1     -18.524  13.174  12.850  0.00  0.00     0.059 C 
ATOM     11  C   UNK d   1     -16.206   5.359  12.824  0.00  0.00     0.040 C 
ATOM     12  C   UNK d   1     -15.216  11.562  10.370  0.00  0.00     0.004 C 
ATOM     13  C   UNK d   1     -13.322   9.065  12.280  0.00  0.00    -0.027 C 
ATOM     14  C   UNK d   1     -19.380  14.321  12.383  0.00  0.00    -0.024 C 
ATOM     15  C   UNK d   1     -14.319  11.043  11.221  0.00  0.00    -0.002 C 
ATOM     16  C   UNK d   1     -14.093   9.621  11.334  0.00  0.00    -0.004 C 
ATOM     17  C   UNK d   1     -20.428  14.275  11.544  0.00  0.00    -0.004 C 
ATOM     18  C   UNK d   1     -22.669  11.930   9.406  0.00  0.00     0.144 C 
ATOM     19  C   UNK d   1     -18.381   7.698  12.424  0.00  0.00     0.283 C 
ATOM     20  C   UNK d   1     -21.960  10.562   9.426  0.00  0.00     0.062 C 
ATOM     21  C   UNK d   1     -20.915  13.104  10.848  0.00  0.00    -0.002 C 
ATOM     22  C   UNK d   1     -22.073  13.084  10.171  0.00  0.00     0.005 C 
ATOM     23  C   UNK d   1     -19.653   8.045  13.101  0.00  0.00     0.082 C 
ATOM     24  C   UNK d   1     -21.878   9.906  10.781  0.00  0.00    -0.024 C 
ATOM     25  C   UNK d   1     -20.674   8.731  12.566  0.00  0.00     0.006 C 
ATOM     26  C   UNK d   1     -20.755   9.345  11.259  0.00  0.00    -0.004 C 
ENDROOT
BRANCH   5  27
ATOM     27  O   UNK d   1     -16.396  14.272  12.965  0.00  0.00    -0.395 OA
ATOM     28  H   UNK d   1     -16.012  13.945  13.796  0.00  0.00     0.210 HD
ENDBRANCH   5  27
BRANCH   8  29
ATOM     29  O   UNK d   1     -15.475  13.393   8.906  0.00  0.00    -0.392 OA
ATOM     30  H   UNK d   1     -15.836  12.653   8.390  0.00  0.00     0.210 HD
ENDBRANCH   8  29
BRANCH  18  31
ATOM     31  O   UNK d   1     -24.022  11.737   9.832  0.00  0.00    -0.391 OA
ATOM     32  H   UNK d   1     -24.010  11.378  10.735  0.00  0.00     0.210 HD
ENDBRANCH  18  31
TORSDOF 3
ENDMDL
MODEL 5
REMARK VINA RESULT:    -6.132      2.414      6.043
REMARK INTER + INTRA:          -6.670
REMARK INTER:                  -6.670
REMARK INTRA:                   0.000
REMARK UNBOUND:                 0.000
REMARK  3 active torsions:
REMARK  status: ('A' for Active; 'I' for Inactive)
REMARK    1  A    between atoms: O_2  and  C_8 
REMARK    2  A    between atoms: O_3  and  C_11 
REMARK    3  A    between atoms: O_4  and  C_21 
ROOT
ATOM      1  O   UNK d   1     -18.232  13.032  12.050  0.00  0.00    -0.313 OA
ATOM      2  O   UNK d   1     -17.625  11.616  10.328  0.00  0.00    -0.260 OA
ATOM      3  C   UNK d   1     -20.335  12.827  13.178  0.00  0.00     0.032 C 
ATOM      4  C   UNK d   1     -16.985   6.681  13.158  0.00  0.00     0.067 C 
ATOM      5  C   UNK d   1     -16.794   7.673  14.317  0.00  0.00     0.124 C 
ATOM      6  C   UNK d   1     -21.851  12.582  13.166  0.00  0.00     0.006 C 
ATOM      7  C   UNK d   1     -19.647  12.834  11.807  0.00  0.00     0.128 C 
ATOM      8  C   UNK d   1     -18.456   6.294  12.932  0.00  0.00     0.143 C 
ATOM      9  C   UNK d   1     -22.308  11.288  12.482  0.00  0.00     0.027 C 
ATOM     10  C   UNK d   1     -15.398   8.307  14.378  0.00  0.00     0.059 C 
ATOM     11  C   UNK d   1     -20.133  13.961  10.905  0.00  0.00     0.040 C 
ATOM     12  C   UNK d   1     -19.234   7.430  12.328  0.00  0.00     0.004 C 
ATOM     13  C   UNK d   1     -21.684  10.059  13.077  0.00  0.00    -0.027 C 
ATOM     14  C   UNK d   1     -14.254   7.328  14.375  0.00  0.00    -0.024 C 
ATOM     15  C   UNK d   1     -20.183   8.119  12.980  0.00  0.00    -0.002 C 
ATOM     16  C   UNK d   1     -20.850   9.259  12.396  0.00  0.00    -0.004 C 
ATOM     17  C   UNK d   1     -13.348   7.129  13.403  0.00  0.00    -0.004 C 
ATOM     18  C   UNK d   1     -12.168   8.289   9.888  0.00  0.00     0.144 C 
ATOM     19  C   UNK d   1     -17.352  12.375  11.243  0.00  0.00     0.283 C 
ATOM     20  C   UNK d   1     -13.281   9.224   9.375  0.00  0.00     0.062 C 
ATOM     21  C   UNK d   1     -13.325   7.774  12.109  0.00  0.00    -0.002 C 
ATOM     22  C   UNK d   1     -12.294   7.672  11.257  0.00  0.00     0.005 C 
ATOM     23  C   UNK d   1     -15.988  12.772  11.666  0.00  0.00     0.082 C 
ATOM     24  C   UNK d   1     -13.467  10.491  10.170  0.00  0.00    -0.024 C 
ATOM     25  C   UNK d   1     -14.844  12.158  11.328  0.00  0.00     0.006 C 
ATOM     26  C   UNK d   1     -14.670  10.951  10.550  0.00  0.00    -0.004 C 
ENDROOT
BRANCH   5  27
ATOM     27  O   UNK d   1     -17.036   7.017  15.562  0.00  0.00    -0.395 OA
ATOM     28  H   UNK d   1     -16.193   6.653  15.882  0.00  0.00     0.210 HD
ENDBRANCH   5  27
BRANCH   8  29
ATOM     29  O   UNK d   1     -18.508   5.210  12.004  0.00  0.00    -0.392 OA
ATOM     30  H   UNK d   1     -18.066   4.449  12.418  0.00  0.00     0.210 HD
ENDBRANCH   8  29
BRANCH  18  31
ATOM     31  O   UNK d   1     -10.924   8.990   9.805  0.00  0.00    -0.391 OA
ATOM     32  H   UNK d   1     -10.209   8.336   9.729  0.00  0.00     0.210 HD
ENDBRANCH  18  31
TORSDOF 3
ENDMDL
MODEL 6
REMARK VINA RESULT:    -6.114      3.801      7.298
REMARK INTER + INTRA:          -6.650
REMARK INTER:                  -6.650
REMARK INTRA:                   0.000
REMARK UNBOUND:                 0.000
REMARK  3 active torsions:
REMARK  status: ('A' for Active; 'I' for Inactive)
REMARK    1  A    between atoms: O_2  and  C_8 
REMARK    2  A    between atoms: O_3  and  C_11 
REMARK    3  A    between atoms: O_4  and  C_21 
ROOT
ATOM      1  O   UNK d   1     -18.923   2.122  14.728  0.00  0.00    -0.313 OA
ATOM      2  O   UNK d   1     -18.953   4.284  15.542  0.00  0.00    -0.260 OA
ATOM      3  C   UNK d   1     -20.880   0.742  14.723  0.00  0.00     0.032 C 
ATOM      4  C   UNK d   1     -22.228   6.871  11.624  0.00  0.00     0.067 C 
ATOM      5  C   UNK d   1     -21.737   5.669  10.802  0.00  0.00     0.124 C 
ATOM      6  C   UNK d   1     -22.158   0.216  15.392  0.00  0.00     0.006 C 
ATOM      7  C   UNK d   1     -20.043   1.720  15.556  0.00  0.00     0.128 C 
ATOM      8  C   UNK d   1     -23.512   6.575  12.418  0.00  0.00     0.143 C 
ATOM      9  C   UNK d   1     -23.148   1.288  15.866  0.00  0.00     0.027 C 
ATOM     10  C   UNK d   1     -20.316   5.827  10.244  0.00  0.00     0.059 C 
ATOM     11  C   UNK d   1     -19.487   1.093  16.828  0.00  0.00     0.040 C 
ATOM     12  C   UNK d   1     -23.238   5.660  13.580  0.00  0.00     0.004 C 
ATOM     13  C   UNK d   1     -23.592   2.204  14.762  0.00  0.00    -0.027 C 
ATOM     14  C   UNK d   1     -20.077   7.091   9.461  0.00  0.00    -0.024 C 
ATOM     15  C   UNK d   1     -23.666   4.391  13.650  0.00  0.00    -0.002 C 
ATOM     16  C   UNK d   1     -23.312   3.515  14.743  0.00  0.00    -0.004 C 
ATOM     17  C   UNK d   1     -19.299   8.132   9.801  0.00  0.00    -0.004 C 
ATOM     18  C   UNK d   1     -16.871   9.521  12.497  0.00  0.00     0.144 C 
ATOM     19  C   UNK d   1     -18.490   3.410  14.828  0.00  0.00     0.283 C 
ATOM     20  C   UNK d   1     -16.994   8.554  13.691  0.00  0.00     0.062 C 
ATOM     21  C   UNK d   1     -18.575   8.289  11.044  0.00  0.00    -0.002 C 
ATOM     22  C   UNK d   1     -17.672   9.260  11.248  0.00  0.00     0.005 C 
ATOM     23  C   UNK d   1     -17.325   3.554  13.922  0.00  0.00     0.082 C 
ATOM     24  C   UNK d   1     -16.525   7.147  13.423  0.00  0.00    -0.024 C 
ATOM     25  C   UNK d   1     -16.780   4.709  13.512  0.00  0.00     0.006 C 
ATOM     26  C   UNK d   1     -17.222   6.058  13.786  0.00  0.00    -0.004 C 
ENDROOT
BRANCH   5  27
ATOM     27  O   UNK d   1     -22.619   5.441   9.702  0.00  0.00    -0.395 OA
ATOM     28  H   UNK d   1     -22.467   4.539   9.372  0.00  0.00     0.210 HD
ENDBRANCH   5  27
BRANCH   8  29
ATOM     29  O   UNK d   1     -24.011   7.800  12.957  0.00  0.00    -0.392 OA
ATOM     30  H   UNK d   1     -24.934   7.893  12.667  0.00  0.00     0.210 HD
ENDBRANCH   8  29
BRANCH  18  31
ATOM     31  O   UNK d   1     -15.487   9.628  12.151  0.00  0.00    -0.391 OA
ATOM     32  H   UNK d   1     -15.344   9.154  11.314  0.00  0.00     0.210 HD
ENDBRANCH  18  31
TORSDOF 3
ENDMDL
MODEL 7
REMARK VINA RESULT:    -5.964      3.902      7.770
REMARK INTER + INTRA:          -6.487
REMARK INTER:                  -6.487
REMARK INTRA:                   0.000
REMARK UNBOUND:                 0.000
REMARK  3 active torsions:
REMARK  status: ('A' for Active; 'I' for Inactive)
REMARK    1  A    between atoms: O_2  and  C_8 
REMARK    2  A    between atoms: O_3  and  C_11 
REMARK    3  A    between atoms: O_4  and  C_21 
ROOT
ATOM      1  O   UNK d   1     -18.695   7.986  12.497  0.00  0.00    -0.313 OA
ATOM      2  O   UNK d   1     -18.474   5.758  11.930  0.00  0.00    -0.260 OA
ATOM      3  C   UNK d   1     -19.974   9.513  11.166  0.00  0.00     0.032 C 
ATOM      4  C   UNK d   1     -23.819   3.890  12.776  0.00  0.00     0.067 C 
ATOM      5  C   UNK d   1     -23.829   5.131  13.683  0.00  0.00     0.124 C 
ATOM      6  C   UNK d   1     -20.420  10.064   9.805  0.00  0.00     0.006 C 
ATOM      7  C   UNK d   1     -18.936   8.384  11.125  0.00  0.00     0.128 C 
ATOM      8  C   UNK d   1     -24.219   4.200  11.324  0.00  0.00     0.143 C 
ATOM      9  C   UNK d   1     -20.992   9.030   8.826  0.00  0.00     0.027 C 
ATOM     10  C   UNK d   1     -23.155   4.921  15.045  0.00  0.00     0.059 C 
ATOM     11  C   UNK d   1     -17.608   8.821  10.520  0.00  0.00     0.040 C 
ATOM     12  C   UNK d   1     -23.134   4.956  10.607  0.00  0.00     0.004 C 
ATOM     13  C   UNK d   1     -22.166   8.279   9.386  0.00  0.00    -0.027 C 
ATOM     14  C   UNK d   1     -23.656   3.736  15.827  0.00  0.00    -0.024 C 
ATOM     15  C   UNK d   1     -23.238   6.241  10.235  0.00  0.00    -0.002 C 
ATOM     16  C   UNK d   1     -22.144   6.960   9.624  0.00  0.00    -0.004 C 
ATOM     17  C   UNK d   1     -22.992   2.604  16.116  0.00  0.00    -0.004 C 
ATOM     18  C   UNK d   1     -19.607   0.735  15.742  0.00  0.00     0.144 C 
ATOM     19  C   UNK d   1     -18.478   6.665  12.746  0.00  0.00     0.283 C 
ATOM     20  C   UNK d   1     -18.791   1.572  14.737  0.00  0.00     0.062 C 
ATOM     21  C   UNK d   1     -21.662   2.254  15.668  0.00  0.00    -0.002 C 
ATOM     22  C   UNK d   1     -20.985   1.197  16.141  0.00  0.00     0.005 C 
ATOM     23  C   UNK d   1     -18.220   6.527  14.199  0.00  0.00     0.082 C 
ATOM     24  C   UNK d   1     -18.429   2.958  15.208  0.00  0.00    -0.024 C 
ATOM     25  C   UNK d   1     -18.235   5.384  14.901  0.00  0.00     0.006 C 
ATOM     26  C   UNK d   1     -18.566   4.053  14.442  0.00  0.00    -0.004 C 
ENDROOT
BRANCH   5  27
ATOM     27  O   UNK d   1     -25.175   5.549  13.917  0.00  0.00    -0.395 OA
ATOM     28  H   UNK d   1     -25.432   5.261  14.809  0.00  0.00     0.210 HD
ENDBRANCH   5  27
BRANCH   8  29
ATOM     29  O   UNK d   1     -24.402   2.968  10.625  0.00  0.00    -0.392 OA
ATOM     30  H   UNK d   1     -24.614   2.286  11.285  0.00  0.00     0.210 HD
ENDBRANCH   8  29
BRANCH  18  31
ATOM     31  O   UNK d   1     -18.816   0.556  16.920  0.00  0.00    -0.391 OA
ATOM     32  H   UNK d   1     -18.006   0.077  16.674  0.00  0.00     0.210 HD
ENDBRANCH  18  31
TORSDOF 3
ENDMDL
MODEL 8
REMARK VINA RESULT:    -5.893      4.247      8.634
REMARK INTER + INTRA:          -6.410
REMARK INTER:                  -6.410
REMARK INTRA:                   0.000
REMARK UNBOUND:                 0.000
REMARK  3 active torsions:
REMARK  status: ('A' for Active; 'I' for Inactive)
REMARK    1  A    between atoms: O_2  and  C_8 
REMARK    2  A    between atoms: O_3  and  C_11 
REMARK    3  A    between atoms: O_4  and  C_21 
ROOT
ATOM      1  O   UNK d   1     -17.486   7.726  20.461  0.00  0.00    -0.313 OA
ATOM      2  O   UNK d   1     -16.303   5.821  19.907  0.00  0.00    -0.260 OA
ATOM      3  C   UNK d   1     -16.529   9.914  20.269  0.00  0.00     0.032 C 
ATOM      4  C   UNK d   1     -15.858   6.433  14.233  0.00  0.00     0.067 C 
ATOM      5  C   UNK d   1     -17.088   7.316  14.495  0.00  0.00     0.124 C 
ATOM      6  C   UNK d   1     -15.353  10.887  20.430  0.00  0.00     0.006 C 
ATOM      7  C   UNK d   1     -16.280   8.477  20.745  0.00  0.00     0.128 C 
ATOM      8  C   UNK d   1     -14.529   7.197  14.362  0.00  0.00     0.143 C 
ATOM      9  C   UNK d   1     -14.043  10.462  19.754  0.00  0.00     0.027 C 
ATOM     10  C   UNK d   1     -18.397   6.534  14.671  0.00  0.00     0.059 C 
ATOM     11  C   UNK d   1     -16.010   8.387  22.242  0.00  0.00     0.040 C 
ATOM     12  C   UNK d   1     -14.219   7.518  15.798  0.00  0.00     0.004 C 
ATOM     13  C   UNK d   1     -14.196  10.221  18.280  0.00  0.00    -0.027 C 
ATOM     14  C   UNK d   1     -18.713   5.565  13.563  0.00  0.00    -0.024 C 
ATOM     15  C   UNK d   1     -14.243   8.757  16.310  0.00  0.00    -0.002 C 
ATOM     16  C   UNK d   1     -14.023   9.018  17.714  0.00  0.00    -0.004 C 
ATOM     17  C   UNK d   1     -18.728   4.223  13.626  0.00  0.00    -0.004 C 
ATOM     18  C   UNK d   1     -18.238   1.158  15.963  0.00  0.00     0.144 C 
ATOM     19  C   UNK d   1     -17.348   6.431  20.064  0.00  0.00     0.283 C 
ATOM     20  C   UNK d   1     -17.647   1.732  17.265  0.00  0.00     0.062 C 
ATOM     21  C   UNK d   1     -18.367   3.416  14.772  0.00  0.00    -0.002 C 
ATOM     22  C   UNK d   1     -18.580   2.093  14.831  0.00  0.00     0.005 C 
ATOM     23  C   UNK d   1     -18.712   5.880  19.878  0.00  0.00     0.082 C 
ATOM     24  C   UNK d   1     -18.556   2.666  18.022  0.00  0.00    -0.024 C 
ATOM     25  C   UNK d   1     -19.027   4.745  19.236  0.00  0.00     0.006 C 
ATOM     26  C   UNK d   1     -18.148   3.842  18.526  0.00  0.00    -0.004 C 
ENDROOT
BRANCH   5  27
ATOM     27  O   UNK d   1     -17.265   8.234  13.416  0.00  0.00    -0.395 OA
ATOM     28  H   UNK d   1     -16.481   8.807  13.373  0.00  0.00     0.210 HD
ENDBRANCH   5  27
BRANCH   8  29
ATOM     29  O   UNK d   1     -13.472   6.365  13.881  0.00  0.00    -0.392 OA
ATOM     30  H   UNK d   1     -13.337   5.657  14.533  0.00  0.00     0.210 HD
ENDBRANCH   8  29
BRANCH  18  31
ATOM     31  O   UNK d   1     -19.397   0.390  16.300  0.00  0.00    -0.391 OA
ATOM     32  H   UNK d   1     -19.958   0.320  15.508  0.00  0.00     0.210 HD
ENDBRANCH  18  31
TORSDOF 3
ENDMDL
MODEL 9
REMARK VINA RESULT:    -5.817      3.488      8.751
REMARK INTER + INTRA:          -6.327
REMARK INTER:                  -6.327
REMARK INTRA:                   0.000
REMARK UNBOUND:                 0.000
REMARK  3 active torsions:
REMARK  status: ('A' for Active; 'I' for Inactive)
REMARK    1  A    between atoms: O_2  and  C_8 
REMARK    2  A    between atoms: O_3  and  C_11 
REMARK    3  A    between atoms: O_4  and  C_21 
ROOT
ATOM      1  O   UNK d   1     -16.048  13.841  10.148  0.00  0.00    -0.313 OA
ATOM      2  O   UNK d   1     -17.147  13.601  12.165  0.00  0.00    -0.260 OA
ATOM      3  C   UNK d   1     -14.609  12.137   9.277  0.00  0.00     0.032 C 
ATOM      4  C   UNK d   1     -20.864   9.440  10.886  0.00  0.00     0.067 C 
ATOM      5  C   UNK d   1     -20.585   9.983   9.476  0.00  0.00     0.124 C 
ATOM      6  C   UNK d   1     -13.527  11.064   9.464  0.00  0.00     0.006 C 
ATOM      7  C   UNK d   1     -14.993  12.927  10.534  0.00  0.00     0.128 C 
ATOM      8  C   UNK d   1     -19.874   8.345  11.317  0.00  0.00     0.143 C 
ATOM      9  C   UNK d   1     -13.824  10.002  10.531  0.00  0.00     0.027 C 
ATOM     10  C   UNK d   1     -21.352  11.268   9.134  0.00  0.00     0.059 C 
ATOM     11  C   UNK d   1     -13.839  13.750  11.094  0.00  0.00     0.040 C 
ATOM     12  C   UNK d   1     -18.516   8.919  11.610  0.00  0.00     0.004 C 
ATOM     13  C   UNK d   1     -15.111   9.269  10.286  0.00  0.00    -0.027 C 
ATOM     14  C   UNK d   1     -22.840  11.197   9.349  0.00  0.00    -0.024 C 
ATOM     15  C   UNK d   1     -17.432   8.704  10.850  0.00  0.00    -0.002 C 
ATOM     16  C   UNK d   1     -16.163   9.341  11.114  0.00  0.00    -0.004 C 
ATOM     17  C   UNK d   1     -23.568  11.849  10.271  0.00  0.00    -0.004 C 
ATOM     18  C   UNK d   1     -23.419  14.402  13.196  0.00  0.00     0.144 C 
ATOM     19  C   UNK d   1     -17.040  14.084  11.050  0.00  0.00     0.283 C 
ATOM     20  C   UNK d   1     -21.918  14.601  13.484  0.00  0.00     0.062 C 
ATOM     21  C   UNK d   1     -23.055  12.712  11.312  0.00  0.00    -0.002 C 
ATOM     22  C   UNK d   1     -23.842  13.478  12.083  0.00  0.00     0.005 C 
ATOM     23  C   UNK d   1     -17.962  15.070  10.437  0.00  0.00     0.082 C 
ATOM     24  C   UNK d   1     -21.133  15.234  12.365  0.00  0.00    -0.024 C 
ATOM     25  C   UNK d   1     -19.198  15.369  10.862  0.00  0.00     0.006 C 
ATOM     26  C   UNK d   1     -19.943  14.771  11.948  0.00  0.00    -0.004 C 
ENDROOT
BRANCH   5  27
ATOM     27  O   UNK d   1     -20.922   8.996   8.500  0.00  0.00    -0.395 OA
ATOM     28  H   UNK d   1     -20.105   8.540   8.235  0.00  0.00     0.210 HD
ENDBRANCH   5  27
BRANCH   8  29
ATOM     29  O   UNK d   1     -20.347   7.748  12.526  0.00  0.00    -0.392 OA
ATOM     30  H   UNK d   1     -19.636   7.182  12.870  0.00  0.00     0.210 HD
ENDBRANCH   8  29
BRANCH  18  31
ATOM     31  O   UNK d   1     -24.007  15.689  12.982  0.00  0.00    -0.391 OA
ATOM     32  H   UNK d   1     -24.686  15.604  12.291  0.00  0.00     0.210 HD
ENDBRANCH  18  31
TORSDOF 3
ENDMDL
